*SPEF "ieee 1481-1999"
*DESIGN "eth_phy_1g"
*DATE "20:26:00 Thursday February 12, 2026"
*VENDOR "The OpenROAD Project"
*PROGRAM "OpenROAD"
*VERSION "edf00dff99f6c40d67a30c0e22a8191c5d2ed9d6"
*DESIGN_FLOW "NAME_SCOPE LOCAL" "PIN_CAP NONE"
*DIVIDER /
*DELIMITER :
*BUS_DELIMITER []
*T_UNIT 1 NS
*C_UNIT 1 PF
*R_UNIT 1 OHM
*L_UNIT 1 HENRY

*NAME_MAP
*3 clk
*4 eth_data_in[0]
*5 eth_data_in[1]
*6 eth_data_in[2]
*7 eth_data_in[3]
*8 eth_data_in[4]
*9 eth_data_in[5]
*10 eth_data_in[6]
*11 eth_data_in[7]
*12 eth_valid_in
*13 phy_data_out[0]
*14 phy_data_out[1]
*15 phy_data_out[2]
*16 phy_data_out[3]
*17 phy_data_out[4]
*18 phy_data_out[5]
*19 phy_data_out[6]
*20 phy_data_out[7]
*21 phy_data_out[8]
*22 phy_data_out[9]
*23 phy_valid_out
*24 rst
*25 _00_
*26 _01_
*27 _02_
*28 _03_
*29 _04_
*30 _05_
*31 _06_
*32 _07_
*33 _08_
*34 _09_
*35 _10_
*36 _11_
*37 _12_
*38 _13_
*39 _14_
*40 _15_
*41 _16_
*42 _17_
*43 _18_
*44 _19_
*45 _20_
*46 _21_
*47 _22_
*48 _23_
*49 _24_
*50 _25_
*51 _26_
*52 clknet_0_clk
*53 clknet_1_0__leaf_clk
*54 clknet_1_1__leaf_clk
*55 net1
*56 net10
*57 net11
*58 net12
*59 net13
*60 net14
*61 net15
*62 net16
*63 net17
*64 net18
*65 net19
*66 net2
*67 net20
*68 net21
*69 net22
*70 net23
*71 net24
*72 net25
*73 net26
*74 net27
*75 net28
*76 net3
*77 net4
*78 net5
*79 net6
*80 net7
*81 net8
*82 net9
*83 u_pcs\.rd_pos
*84 FILLER_0_15
*85 FILLER_0_21
*86 FILLER_0_3
*87 FILLER_1_3
*88 FILLER_1_42
*89 FILLER_1_55
*90 FILLER_2_55
*91 FILLER_2_7
*92 FILLER_3_3
*93 FILLER_3_9
*94 FILLER_4_15
*95 FILLER_4_19
*96 FILLER_4_3
*97 FILLER_4_40
*98 FILLER_5_16
*99 FILLER_5_43
*100 FILLER_6_38
*101 FILLER_6_7
*102 FILLER_7_3
*103 FILLER_8_3
*104 FILLER_8_50
*105 FILLER_9_3
*106 PHY_EDGE_ROW_0_Left_10
*107 PHY_EDGE_ROW_0_Right_0
*108 PHY_EDGE_ROW_1_Left_11
*109 PHY_EDGE_ROW_1_Right_1
*110 PHY_EDGE_ROW_2_Left_12
*111 PHY_EDGE_ROW_2_Right_2
*112 PHY_EDGE_ROW_3_Left_13
*113 PHY_EDGE_ROW_3_Right_3
*114 PHY_EDGE_ROW_4_Left_14
*115 PHY_EDGE_ROW_4_Right_4
*116 PHY_EDGE_ROW_5_Left_15
*117 PHY_EDGE_ROW_5_Right_5
*118 PHY_EDGE_ROW_6_Left_16
*119 PHY_EDGE_ROW_6_Right_6
*120 PHY_EDGE_ROW_7_Left_17
*121 PHY_EDGE_ROW_7_Right_7
*122 PHY_EDGE_ROW_8_Left_18
*123 PHY_EDGE_ROW_8_Right_8
*124 PHY_EDGE_ROW_9_Left_19
*125 PHY_EDGE_ROW_9_Right_9
*126 TAP_TAPCELL_ROW_0_20
*127 TAP_TAPCELL_ROW_0_21
*128 TAP_TAPCELL_ROW_1_22
*129 TAP_TAPCELL_ROW_2_23
*130 TAP_TAPCELL_ROW_3_24
*131 TAP_TAPCELL_ROW_4_25
*132 TAP_TAPCELL_ROW_5_26
*133 TAP_TAPCELL_ROW_6_27
*134 TAP_TAPCELL_ROW_7_28
*135 TAP_TAPCELL_ROW_8_29
*136 TAP_TAPCELL_ROW_9_30
*137 TAP_TAPCELL_ROW_9_31
*138 _27_
*139 _28_
*140 _29_
*141 _30_
*142 _31_
*143 _32_
*144 _33_
*145 _34_
*146 _35_
*147 _36_
*148 _37_
*149 _38_
*150 _39_
*151 _40_
*152 _41_
*153 _42_
*154 _43_
*155 _44_
*156 _45_
*157 _46_
*158 _47_
*159 _48_
*160 _49_
*161 _50_
*162 _51_
*163 _52_
*164 _53_
*165 _54_
*166 _55_
*167 _56_
*168 _57_
*169 _58_
*170 _59_
*171 _60_
*172 _61_
*173 _62_
*174 _63_
*175 _64_
*176 _65_
*177 clkbuf_0_clk
*178 clkbuf_1_0__f_clk
*179 clkbuf_1_1__f_clk
*180 hold1
*181 hold2
*182 hold3
*183 hold4
*184 hold5
*185 hold6
*186 hold7
*187 input1
*188 input10
*189 input2
*190 input3
*191 input4
*192 input5
*193 input6
*194 input7
*195 input8
*196 input9
*197 output11
*198 output12
*199 output13
*200 output14
*201 output15
*202 output16
*203 output17
*204 output18
*205 output19
*206 output20
*207 output21

*PORTS
clk I
eth_data_in[0] I
eth_data_in[1] I
eth_data_in[2] I
eth_data_in[3] I
eth_data_in[4] I
eth_data_in[5] I
eth_data_in[6] I
eth_data_in[7] I
eth_valid_in I
phy_data_out[0] O
phy_data_out[1] O
phy_data_out[2] O
phy_data_out[3] O
phy_data_out[4] O
phy_data_out[5] O
phy_data_out[6] O
phy_data_out[7] O
phy_data_out[8] O
phy_data_out[9] O
phy_valid_out O
rst I

*D_NET *3 0.00226892
*CONN
*P clk I
*I *177:A I *D sky130_fd_sc_hd__clkbuf_16
*CAP
1 clk 0.000927875
2 *177:A 0.000927875
3 *177:A phy_data_out[0] 0
4 *177:A phy_data_out[3] 3.19385e-05
5 *177:A *157:B 0.000104974
6 *177:A *179:A 0
7 *177:A *191:A 6.63071e-05
8 *177:A *45:22 0.000209949
9 *177:A *56:73 0
*RES
1 clk *177:A 24.1178 
*END

*D_NET *4 0.00158716
*CONN
*P eth_data_in[0] I
*I *187:A I *D sky130_fd_sc_hd__clkbuf_1
*CAP
1 eth_data_in[0] 0.000629172
2 *187:A 0.000629172
3 *187:A phy_data_out[7] 0.000144773
4 *187:A *154:S 9.93135e-05
5 *187:A *196:A 0
6 *187:A *202:A 0
7 *187:A *204:A 8.47274e-05
*RES
1 eth_data_in[0] *187:A 27.0679 
*END

*D_NET *5 0.00217245
*CONN
*P eth_data_in[1] I
*I *189:A I *D sky130_fd_sc_hd__clkbuf_1
*CAP
1 eth_data_in[1] 0.000488302
2 *189:A 0.000488302
3 *189:A *173:A 0.000576524
4 *189:A *178:A 0
5 *189:A *199:A 0.000619318
*RES
1 eth_data_in[1] *189:A 27.175 
*END

*D_NET *6 0.00121727
*CONN
*P eth_data_in[2] I
*I *190:A I *D sky130_fd_sc_hd__clkbuf_1
*CAP
1 eth_data_in[2] 0.000455027
2 *190:A 0.000455027
3 *190:A phy_data_out[5] 0
4 *190:A *176:A 5.52302e-05
5 *190:A *192:A 0.000207565
6 *190:A *193:A 2.05413e-05
7 *190:A *194:A 1.98839e-05
8 *190:A *202:A 3.99614e-06
*RES
1 eth_data_in[2] *190:A 24.1929 
*END

*D_NET *7 0.00126505
*CONN
*P eth_data_in[3] I
*I *191:A I *D sky130_fd_sc_hd__clkbuf_1
*CAP
1 eth_data_in[3] 0.000435859
2 *191:A 0.000435859
3 *191:A phy_data_out[0] 0.000103904
4 *191:A *193:A 0.00010096
5 *191:A *197:A 0.000122159
6 *177:A *191:A 6.63071e-05
*RES
1 eth_data_in[3] *191:A 24.6751 
*END

*D_NET *8 0.00296086
*CONN
*P eth_data_in[4] I
*I *192:A I *D sky130_fd_sc_hd__clkbuf_1
*CAP
1 eth_data_in[4] 0.00108338
2 *192:A 0.00108338
3 *192:A phy_data_out[5] 0
4 *192:A *142:B 3.15739e-05
5 *192:A *142:D 5.49933e-05
6 *192:A *155:A1 4.34648e-05
7 *192:A *155:A2 5.25192e-06
8 *192:A *155:B1 2.70899e-05
9 *192:A *155:B2 0
10 *192:A *167:D 0.000136529
11 *192:A *171:D 0.000100823
12 *192:A *193:A 0
13 *192:A *194:A 7.34412e-05
14 *192:A *41:49 0
15 *192:A *45:12 0
16 *192:A *77:10 0.000113372
17 *190:A *192:A 0.000207565
*RES
1 eth_data_in[4] *192:A 35.1643 
*END

*D_NET *9 0.00284656
*CONN
*P eth_data_in[5] I
*I *193:A I *D sky130_fd_sc_hd__clkbuf_1
*CAP
1 eth_data_in[5] 0.000637782
2 *193:A 0.000637782
3 *193:A *142:A 0.000504253
4 *193:A *142:B 0.000316914
5 *193:A *142:D 4.31193e-05
6 *193:A *143:B 1.76569e-05
7 *193:A *171:CLK 0.000174797
8 *193:A *194:A 7.34412e-05
9 *193:A *195:A 0.000112649
10 *193:A *197:A 9.90431e-05
11 *193:A *67:31 5.59013e-05
12 *193:A *76:8 5.17155e-05
13 *190:A *193:A 2.05413e-05
14 *191:A *193:A 0.00010096
15 *192:A *193:A 0
*RES
1 eth_data_in[5] *193:A 29.679 
*END

*D_NET *10 0.00202879
*CONN
*P eth_data_in[6] I
*I *194:A I *D sky130_fd_sc_hd__clkbuf_1
*CAP
1 eth_data_in[6] 0.000540884
2 *194:A 0.000540884
3 *194:A *142:D 0.000227539
4 *194:A *176:A 0.000142856
5 *194:A *202:A 0.000128044
6 *194:A *204:A 5.62056e-05
7 *194:A *67:31 0.000225609
8 *190:A *194:A 1.98839e-05
9 *192:A *194:A 7.34412e-05
10 *193:A *194:A 7.34412e-05
*RES
1 eth_data_in[6] *194:A 28.3008 
*END

*D_NET *11 0.00577289
*CONN
*P eth_data_in[7] I
*I *195:A I *D sky130_fd_sc_hd__clkbuf_1
*CAP
1 eth_data_in[7] 0.00165918
2 *195:A 0.00165918
3 *195:A phy_data_out[0] 0
4 *195:A phy_data_out[8] 1.68479e-05
5 *195:A phy_data_out[9] 6.37275e-05
6 *195:A *142:C 0.00207369
7 *195:A *201:A 0.000187629
8 *195:A *82:23 0
9 *193:A *195:A 0.000112649
*RES
1 eth_data_in[7] *195:A 23.7071 
*END

*D_NET *12 0.00217855
*CONN
*P eth_valid_in I
*I *196:A I *D sky130_fd_sc_hd__buf_1
*CAP
1 eth_valid_in 0.000930773
2 *196:A 0.000930773
3 *196:A *144:B1 6.36431e-05
4 *196:A *154:S 5.31758e-05
5 *196:A *54:10 1.71482e-05
6 *196:A *82:6 0.000183035
7 *187:A *196:A 0
*RES
1 eth_valid_in *196:A 31.5857 
*END

*D_NET *13 0.000679555
*CONN
*P phy_data_out[0] O
*I *197:X O *D sky130_fd_sc_hd__buf_2
*CAP
1 phy_data_out[0] 0.000256903
2 *197:X 0.000256903
3 phy_data_out[0] phy_data_out[9] 6.18446e-05
4 phy_data_out[0] *142:A 0
5 *177:A phy_data_out[0] 0
6 *191:A phy_data_out[0] 0.000103904
7 *195:A phy_data_out[0] 0
*RES
1 *197:X phy_data_out[0] 19.6044 
*END

*D_NET *14 0.00167445
*CONN
*P phy_data_out[1] O
*I *198:X O *D sky130_fd_sc_hd__buf_2
*CAP
1 phy_data_out[1] 0.000780374
2 *198:X 0.000780374
3 phy_data_out[1] phy_data_out[2] 0.000113701
4 phy_data_out[1] phy_data_out[6] 0
*RES
1 *198:X phy_data_out[1] 19.2759 
*END

*D_NET *15 0.00148859
*CONN
*P phy_data_out[2] O
*I *199:X O *D sky130_fd_sc_hd__buf_2
*CAP
1 phy_data_out[2] 0.000409845
2 *199:X 0.000409845
3 phy_data_out[2] phy_data_out[6] 0.000122376
4 phy_data_out[2] *170:RESET_B 0.000304663
5 phy_data_out[2] *173:A 0
6 phy_data_out[2] *41:14 0
7 phy_data_out[2] *58:10 0.000128161
8 phy_data_out[1] phy_data_out[2] 0.000113701
*RES
1 *199:X phy_data_out[2] 22.6618 
*END

*D_NET *16 0.000636125
*CONN
*P phy_data_out[3] O
*I *200:X O *D sky130_fd_sc_hd__buf_2
*CAP
1 phy_data_out[3] 0.000302093
2 *200:X 0.000302093
3 *177:A phy_data_out[3] 3.19385e-05
*RES
1 *200:X phy_data_out[3] 20.891 
*END

*D_NET *17 0.000994678
*CONN
*P phy_data_out[4] O
*I *201:X O *D sky130_fd_sc_hd__buf_2
*CAP
1 phy_data_out[4] 0.000395515
2 *201:X 0.000395515
3 phy_data_out[4] phy_data_out[8] 0.000140901
4 phy_data_out[4] *201:A 6.27457e-05
*RES
1 *201:X phy_data_out[4] 19.7695 
*END

*D_NET *18 0.00116972
*CONN
*P phy_data_out[5] O
*I *202:X O *D sky130_fd_sc_hd__buf_2
*CAP
1 phy_data_out[5] 0.00054005
2 *202:X 0.00054005
3 phy_data_out[5] phy_data_out[7] 0
4 phy_data_out[5] *202:A 5.71472e-05
5 phy_data_out[5] *204:A 3.24763e-05
6 *190:A phy_data_out[5] 0
7 *192:A phy_data_out[5] 0
*RES
1 *202:X phy_data_out[5] 23.8714 
*END

*D_NET *19 0.00179501
*CONN
*P phy_data_out[6] O
*I *203:X O *D sky130_fd_sc_hd__buf_2
*CAP
1 phy_data_out[6] 0.000750858
2 *203:X 0.000750858
3 phy_data_out[6] *180:A 0.000116117
4 phy_data_out[6] *203:A 5.48009e-05
5 phy_data_out[6] *41:14 0
6 phy_data_out[1] phy_data_out[6] 0
7 phy_data_out[2] phy_data_out[6] 0.000122376
*RES
1 *203:X phy_data_out[6] 20.9539 
*END

*D_NET *20 0.00121243
*CONN
*P phy_data_out[7] O
*I *204:X O *D sky130_fd_sc_hd__buf_2
*CAP
1 phy_data_out[7] 0.000533829
2 *204:X 0.000533829
3 phy_data_out[5] phy_data_out[7] 0
4 *187:A phy_data_out[7] 0.000144773
*RES
1 *204:X phy_data_out[7] 23.8714 
*END

*D_NET *21 0.0037943
*CONN
*P phy_data_out[8] O
*I *205:X O *D sky130_fd_sc_hd__buf_2
*CAP
1 phy_data_out[8] 0.00136381
2 *205:X 0.00136381
3 phy_data_out[8] phy_valid_out 9.79815e-05
4 phy_data_out[8] *142:C 2.24823e-05
5 phy_data_out[8] *144:A3 1.98839e-05
6 phy_data_out[8] *146:A2 3.09351e-05
7 phy_data_out[8] *147:A2 0.000181803
8 phy_data_out[8] *172:CLK 9.66977e-05
9 phy_data_out[8] *174:A 2.09826e-05
10 phy_data_out[8] *179:A 7.83587e-05
11 phy_data_out[8] *180:A 0
12 phy_data_out[8] *185:A 8.15095e-05
13 phy_data_out[8] *205:A 0.000262477
14 phy_data_out[8] *65:6 1.58163e-05
15 phy_data_out[4] phy_data_out[8] 0.000140901
16 *195:A phy_data_out[8] 1.68479e-05
*RES
1 *205:X phy_data_out[8] 39.6305 
*END

*D_NET *22 0.000783929
*CONN
*P phy_data_out[9] O
*I *206:X O *D sky130_fd_sc_hd__buf_2
*CAP
1 phy_data_out[9] 0.000291077
2 *206:X 0.000291077
3 phy_data_out[9] *206:A 5.85758e-05
4 phy_data_out[9] *67:31 1.76266e-05
5 phy_data_out[0] phy_data_out[9] 6.18446e-05
6 *195:A phy_data_out[9] 6.37275e-05
*RES
1 *206:X phy_data_out[9] 20.5501 
*END

*D_NET *23 0.00220706
*CONN
*P phy_valid_out O
*I *207:X O *D sky130_fd_sc_hd__buf_2
*CAP
1 phy_valid_out 0.000547473
2 *207:X 0.000547473
3 phy_valid_out *146:A2 0
4 phy_valid_out *170:RESET_B 0.000175092
5 phy_valid_out *172:RESET_B 0.000488191
6 phy_valid_out *180:A 0.000159402
7 phy_valid_out *201:A 0
8 phy_valid_out *207:A 2.0587e-05
9 phy_valid_out *41:14 0
10 phy_valid_out *56:22 0.00010326
11 phy_valid_out *63:27 6.76049e-05
12 phy_data_out[8] phy_valid_out 9.79815e-05
*RES
1 *207:X phy_valid_out 26.2319 
*END

*D_NET *24 0.000971582
*CONN
*P rst I
*I *180:A I *D sky130_fd_sc_hd__dlygate4sd3_1
*CAP
1 rst 0.000348032
2 *180:A 0.000348032
3 *180:A *146:A2 0
4 *180:A *41:14 0
5 phy_data_out[6] *180:A 0.000116117
6 phy_data_out[8] *180:A 0
7 phy_valid_out *180:A 0.000159402
*RES
1 rst *180:A 19.6975 
*END

*D_NET *25 0.000358269
*CONN
*I *165:RESET_B I *D sky130_fd_sc_hd__dfrtp_1
*I *141:Y O *D sky130_fd_sc_hd__inv_2
*CAP
1 *165:RESET_B 0.000102697
2 *141:Y 0.000102697
3 *165:RESET_B *165:CLK 4.96155e-05
4 *165:RESET_B *169:D 0
5 *165:RESET_B *56:75 0.00010326
*RES
1 *141:Y *165:RESET_B 20.5232 
*END

*D_NET *26 0.00213552
*CONN
*I *166:RESET_B I *D sky130_fd_sc_hd__dfrtp_1
*I *158:Y O *D sky130_fd_sc_hd__inv_2
*CAP
1 *166:RESET_B 0.000668032
2 *158:Y 0.000668032
3 *166:RESET_B *158:A 6.05161e-06
4 *166:RESET_B *172:RESET_B 1.0945e-05
5 *166:RESET_B *207:A 0.000724557
6 *166:RESET_B *56:22 5.78982e-05
*RES
1 *158:Y *166:RESET_B 32.0054 
*END

*D_NET *27 0.000357617
*CONN
*I *167:RESET_B I *D sky130_fd_sc_hd__dfrtp_1
*I *159:Y O *D sky130_fd_sc_hd__inv_2
*CAP
1 *167:RESET_B 9.24783e-05
2 *159:Y 9.24783e-05
3 *167:RESET_B *147:C1 1.41706e-05
4 *167:RESET_B *197:A 5.52302e-05
5 *167:RESET_B *45:22 0.00010326
*RES
1 *159:Y *167:RESET_B 20.175 
*END

*D_NET *28 0.000787374
*CONN
*I *168:RESET_B I *D sky130_fd_sc_hd__dfrtp_1
*I *160:Y O *D sky130_fd_sc_hd__inv_2
*CAP
1 *168:RESET_B 0.000334272
2 *160:Y 0.000334272
3 *168:RESET_B *153:B1 6.91438e-06
4 *168:RESET_B *165:CLK 3.67252e-05
5 *168:RESET_B *168:D 5.33005e-05
6 *168:RESET_B *53:27 2.18902e-05
*RES
1 *160:Y *168:RESET_B 14.0232 
*END

*D_NET *29 0.000735278
*CONN
*I *169:RESET_B I *D sky130_fd_sc_hd__dfrtp_1
*I *161:Y O *D sky130_fd_sc_hd__inv_2
*CAP
1 *169:RESET_B 0.000363014
2 *161:Y 0.000363014
3 *169:RESET_B *161:A 0
4 *169:RESET_B *169:D 9.25014e-06
5 *169:RESET_B *56:75 0
*RES
1 *161:Y *169:RESET_B 23.6125 
*END

*D_NET *30 0.00169408
*CONN
*I *170:RESET_B I *D sky130_fd_sc_hd__dfrtp_1
*I *162:Y O *D sky130_fd_sc_hd__inv_2
*CAP
1 *170:RESET_B 0.000338406
2 *162:Y 0.000338406
3 *170:RESET_B *162:A 9.5538e-05
4 *170:RESET_B *173:A 3.8524e-05
5 *170:RESET_B *41:14 0
6 *170:RESET_B *56:14 0.000177046
7 *170:RESET_B *56:22 0.000122855
8 *170:RESET_B *63:27 0.000103554
9 phy_data_out[2] *170:RESET_B 0.000304663
10 phy_valid_out *170:RESET_B 0.000175092
*RES
1 *162:Y *170:RESET_B 28.0589 
*END

*D_NET *31 0.000779394
*CONN
*I *171:RESET_B I *D sky130_fd_sc_hd__dfrtp_1
*I *163:Y O *D sky130_fd_sc_hd__inv_2
*CAP
1 *171:RESET_B 0.000127584
2 *163:Y 0.000127584
3 *171:RESET_B *155:B2 8.91726e-05
4 *171:RESET_B *41:49 0.000364253
5 *171:RESET_B *77:10 7.08001e-05
*RES
1 *163:Y *171:RESET_B 22.9786 
*END

*D_NET *32 0.00218906
*CONN
*I *172:RESET_B I *D sky130_fd_sc_hd__dfrtp_1
*I *164:Y O *D sky130_fd_sc_hd__inv_2
*CAP
1 *172:RESET_B 0.000505105
2 *164:Y 0.000505105
3 *172:RESET_B *201:A 0
4 *172:RESET_B *207:A 0.000502214
5 *172:RESET_B *65:6 0.000177501
6 phy_valid_out *172:RESET_B 0.000488191
7 *166:RESET_B *172:RESET_B 1.0945e-05
*RES
1 *164:Y *172:RESET_B 31.0768 
*END

*D_NET *33 0.00160165
*CONN
*I *165:D I *D sky130_fd_sc_hd__dfrtp_1
*I *157:X O *D sky130_fd_sc_hd__or2_1
*CAP
1 *165:D 0.00047725
2 *157:X 0.00047725
3 *165:D *165:CLK 0.000158761
4 *165:D *169:D 0.000198698
5 *165:D *41:49 0.00014734
6 *165:D *45:22 0.00011559
7 *165:D *45:28 2.67601e-05
8 *165:D *56:73 0
*RES
1 *157:X *165:D 36.8321 
*END

*D_NET *34 0.000894895
*CONN
*I *167:D I *D sky130_fd_sc_hd__dfrtp_1
*I *155:X O *D sky130_fd_sc_hd__a22o_1
*CAP
1 *167:D 0.000158081
2 *155:X 0.000158081
3 *167:D *142:B 0.000310746
4 *167:D *171:D 0.000102545
5 *167:D *54:22 2.89114e-05
6 *192:A *167:D 0.000136529
*RES
1 *155:X *167:D 32.8143 
*END

*D_NET *35 0.000857013
*CONN
*I *168:D I *D sky130_fd_sc_hd__dfrtp_1
*I *153:X O *D sky130_fd_sc_hd__a211o_1
*CAP
1 *168:D 0.000191965
2 *153:X 0.000191965
3 *168:D *153:B1 9.9129e-05
4 *168:D *41:14 0.000142157
5 *168:D *41:24 5.49489e-05
6 *168:D *53:23 9.76123e-05
7 *168:D *53:27 2.59355e-05
8 *168:RESET_B *168:D 5.33005e-05
*RES
1 *153:X *168:D 31.2429 
*END

*D_NET *36 0.00083574
*CONN
*I *169:D I *D sky130_fd_sc_hd__dfrtp_1
*I *150:X O *D sky130_fd_sc_hd__a211o_1
*CAP
1 *169:D 0.000280785
2 *150:X 0.000280785
3 *169:D *150:A2 1.74352e-05
4 *169:D *41:49 4.87854e-05
5 *169:D *56:73 0
6 *169:D *56:75 0
7 *165:D *169:D 0.000198698
8 *165:RESET_B *169:D 0
9 *169:RESET_B *169:D 9.25014e-06
*RES
1 *150:X *169:D 32.725 
*END

*D_NET *37 0.000341352
*CONN
*I *170:D I *D sky130_fd_sc_hd__dfrtp_1
*I *149:Y O *D sky130_fd_sc_hd__a211oi_1
*CAP
1 *170:D 0.000100565
2 *149:Y 0.000100565
3 *170:D *153:B1 0.000140223
*RES
1 *149:Y *170:D 20.9214 
*END

*D_NET *38 0.000835821
*CONN
*I *171:D I *D sky130_fd_sc_hd__dfrtp_1
*I *147:X O *D sky130_fd_sc_hd__a211o_1
*CAP
1 *171:D 0.000259076
2 *147:X 0.000259076
3 *171:D *144:A3 4.8598e-05
4 *171:D *155:A2 6.57032e-05
5 *167:D *171:D 0.000102545
6 *192:A *171:D 0.000100823
*RES
1 *147:X *171:D 31.5286 
*END

*D_NET *39 0.000797351
*CONN
*I *172:D I *D sky130_fd_sc_hd__dfrtp_1
*I *146:Y O *D sky130_fd_sc_hd__a211oi_1
*CAP
1 *172:D 0.000244197
2 *146:Y 0.000244197
3 *172:D *144:A2 5.33005e-05
4 *172:D *144:A3 1.38796e-05
5 *172:D *146:B1 3.08734e-05
6 *172:D *154:S 0.000100823
7 *172:D *54:10 0.000100831
8 *172:D *54:14 9.25014e-06
*RES
1 *146:Y *172:D 31.5464 
*END

*D_NET *40 0.000974796
*CONN
*I *146:A1 I *D sky130_fd_sc_hd__a211oi_1
*I *138:Y O *D sky130_fd_sc_hd__inv_2
*CAP
1 *146:A1 0.000415722
2 *138:Y 0.000415722
3 *146:A1 *146:A2 9.90367e-05
4 *146:A1 *185:A 4.43157e-05
5 *146:A1 *201:A 0
*RES
1 *138:Y *146:A1 32.8679 
*END

*D_NET *41 0.00980547
*CONN
*I *146:A2 I *D sky130_fd_sc_hd__a211oi_1
*I *153:A1 I *D sky130_fd_sc_hd__a211o_1
*I *149:A1 I *D sky130_fd_sc_hd__a211oi_1
*I *156:A I *D sky130_fd_sc_hd__and2_1
*I *150:A1 I *D sky130_fd_sc_hd__a211o_1
*I *147:A1 I *D sky130_fd_sc_hd__a211o_1
*I *155:A1 I *D sky130_fd_sc_hd__a22o_1
*I *152:A I *D sky130_fd_sc_hd__nor2_1
*I *139:Y O *D sky130_fd_sc_hd__inv_2
*CAP
1 *146:A2 0.000335837
2 *153:A1 1.3844e-05
3 *149:A1 1.447e-05
4 *156:A 0
5 *150:A1 2.41801e-05
6 *147:A1 4.72557e-05
7 *155:A1 0.000235499
8 *152:A 0
9 *139:Y 0.000244646
10 *41:49 0.000792915
11 *41:41 0.000630354
12 *41:39 0.000145665
13 *41:35 0.000186361
14 *41:24 0.000372914
15 *41:14 0.000866477
16 *41:8 0.00118244
17 *146:A2 *174:A 0
18 *146:A2 *185:A 9.90367e-05
19 *146:A2 *201:A 0.00047957
20 *146:A2 *56:53 2.58997e-05
21 *147:A1 *45:22 2.91659e-05
22 *149:A1 *150:C1 2.84109e-05
23 *149:A1 *45:28 2.23592e-05
24 *150:A1 *150:C1 0
25 *153:A1 *153:A2 1.04232e-05
26 *153:A1 *153:C1 8.29398e-06
27 *155:A1 *142:C 0.000339246
28 *155:A1 *155:B1 4.15592e-05
29 *41:8 *139:A 8.03313e-05
30 *41:14 *151:B 1.02936e-05
31 *41:14 *153:A2 0.000166419
32 *41:14 *173:A 0.000295844
33 *41:14 *198:A 0.000229456
34 *41:14 *56:14 8.91822e-05
35 *41:14 *56:53 5.56943e-05
36 *41:14 *58:10 3.57163e-05
37 *41:14 *63:27 0
38 *41:24 *151:A 0.000125731
39 *41:24 *151:B 6.31538e-05
40 *41:24 *153:C1 0.000274815
41 *41:24 *178:A 2.26327e-05
42 *41:35 *149:C1 2.8266e-06
43 *41:35 *151:A 8.07951e-05
44 *41:35 *170:CLK 0
45 *41:35 *178:A 0.000104077
46 *41:39 *150:C1 5.43733e-05
47 *41:39 *45:28 4.43256e-05
48 *41:41 *150:B1 5.52302e-05
49 *41:41 *150:C1 0.000119677
50 *41:41 *156:B 5.33005e-05
51 *41:41 *45:28 0.000310286
52 *41:49 *150:A2 5.33005e-05
53 *41:49 *155:B2 2.22406e-05
54 *41:49 *45:22 0.000348026
55 phy_data_out[2] *41:14 0
56 phy_data_out[6] *41:14 0
57 phy_data_out[8] *146:A2 3.09351e-05
58 phy_valid_out *146:A2 0
59 phy_valid_out *41:14 0
60 *146:A1 *146:A2 9.90367e-05
61 *165:D *41:49 0.00014734
62 *168:D *41:14 0.000142157
63 *168:D *41:24 5.49489e-05
64 *169:D *41:49 4.87854e-05
65 *170:RESET_B *41:14 0
66 *171:RESET_B *41:49 0.000364253
67 *180:A *146:A2 0
68 *180:A *41:14 0
69 *192:A *155:A1 4.34648e-05
70 *192:A *41:49 0
*RES
1 *139:Y *41:8 16.8 
2 *41:8 *41:14 18.5893 
3 *41:14 *41:24 9.69643 
4 *41:24 *152:A 13.8 
5 *41:24 *41:35 7.35714 
6 *41:35 *41:39 1.375 
7 *41:39 *41:41 3.41071 
8 *41:41 *41:49 17.4911 
9 *41:49 *155:A1 21.7518 
10 *41:49 *147:A1 14.6839 
11 *41:41 *150:A1 9.72857 
12 *41:39 *156:A 9.3 
13 *41:35 *149:A1 9.83571 
14 *41:14 *153:A1 9.72857 
15 *41:8 *146:A2 22.4607 
*END

*D_NET *42 0.000604338
*CONN
*I *149:A2 I *D sky130_fd_sc_hd__a211oi_1
*I *140:Y O *D sky130_fd_sc_hd__inv_2
*CAP
1 *149:A2 0.000220556
2 *140:Y 0.000220556
3 *149:A2 *140:A 1.21258e-05
4 *149:A2 *145:B 1.98839e-05
5 *149:A2 *149:C1 0
6 *149:A2 *157:A 4.45768e-06
7 *149:A2 *178:A 0.000100823
8 *149:A2 *83:25 2.59355e-05
*RES
1 *140:Y *149:A2 30.7071 
*END

*D_NET *43 0.00357485
*CONN
*I *144:A3 I *D sky130_fd_sc_hd__o31a_1
*I *143:C I *D sky130_fd_sc_hd__nor3_1
*I *142:X O *D sky130_fd_sc_hd__or4_1
*CAP
1 *144:A3 0.000585981
2 *143:C 3.77389e-05
3 *142:X 0
4 *43:4 0.00062372
5 *143:C *143:B 0.000127439
6 *143:C *67:31 0.000129868
7 *144:A3 *142:C 6.86693e-05
8 *144:A3 *144:A1 0.000139491
9 *144:A3 *144:A2 0.00102036
10 *144:A3 *146:B1 0.000182149
11 *144:A3 *147:A2 0.000203625
12 *144:A3 *147:C1 9.90367e-05
13 *144:A3 *155:A2 0.000140933
14 *144:A3 *45:12 0.000133478
15 phy_data_out[8] *144:A3 1.98839e-05
16 *171:D *144:A3 4.8598e-05
17 *172:D *144:A3 1.38796e-05
*RES
1 *142:X *43:4 9.3 
2 *43:4 *143:C 19.9429 
3 *43:4 *144:A3 27.0143 
*END

*D_NET *44 0.00111311
*CONN
*I *155:B1 I *D sky130_fd_sc_hd__a22o_1
*I *143:Y O *D sky130_fd_sc_hd__nor3_1
*CAP
1 *155:B1 0.000420136
2 *143:Y 0.000420136
3 *155:B1 *143:A 9.4941e-05
4 *155:B1 *155:A2 9.65182e-05
5 *155:B1 *67:8 1.27249e-05
6 *155:A1 *155:B1 4.15592e-05
7 *192:A *155:B1 2.70899e-05
*RES
1 *143:Y *155:B1 33.1714 
*END

*D_NET *45 0.00685059
*CONN
*I *146:B1 I *D sky130_fd_sc_hd__a211oi_1
*I *147:B1 I *D sky130_fd_sc_hd__a211o_1
*I *150:B1 I *D sky130_fd_sc_hd__a211o_1
*I *149:B1 I *D sky130_fd_sc_hd__a211oi_1
*I *153:B1 I *D sky130_fd_sc_hd__a211o_1
*I *144:X O *D sky130_fd_sc_hd__o31a_1
*CAP
1 *146:B1 0.00022621
2 *147:B1 0
3 *150:B1 2.52056e-05
4 *149:B1 0
5 *153:B1 0.000585332
6 *144:X 0
7 *45:28 0.000883771
8 *45:22 0.000795567
9 *45:12 0.00100339
10 *45:4 0.000757677
11 *153:B1 *150:C1 3.79877e-06
12 *153:B1 *170:CLK 9.85874e-05
13 *153:B1 *53:23 4.6108e-05
14 *153:B1 *53:27 4.96113e-05
15 *45:12 *144:A2 0.000400867
16 *45:12 *147:C1 2.83284e-06
17 *45:12 *179:A 0
18 *45:22 *147:C1 0.000102521
19 *45:28 *150:C1 1.13883e-05
20 *45:28 *56:73 0
21 *144:A3 *146:B1 0.000182149
22 *144:A3 *45:12 0.000133478
23 *147:A1 *45:22 2.91659e-05
24 *149:A1 *45:28 2.23592e-05
25 *165:D *45:22 0.00011559
26 *165:D *45:28 2.67601e-05
27 *167:RESET_B *45:22 0.00010326
28 *168:D *153:B1 9.9129e-05
29 *168:RESET_B *153:B1 6.91438e-06
30 *170:D *153:B1 0.000140223
31 *172:D *146:B1 3.08734e-05
32 *177:A *45:22 0.000209949
33 *192:A *45:12 0
34 *41:39 *45:28 4.43256e-05
35 *41:41 *150:B1 5.52302e-05
36 *41:41 *45:28 0.000310286
37 *41:49 *45:22 0.000348026
*RES
1 *144:X *45:4 9.3 
2 *45:4 *45:12 12.25 
3 *45:12 *45:22 13.2857 
4 *45:22 *45:28 9.875 
5 *45:28 *153:B1 35.8714 
6 *45:28 *149:B1 9.3 
7 *45:22 *150:B1 14.3357 
8 *45:12 *147:B1 13.8 
9 *45:4 *146:B1 13.1214 
*END

*D_NET *46 0.00482718
*CONN
*I *146:C1 I *D sky130_fd_sc_hd__a211oi_1
*I *154:A1 I *D sky130_fd_sc_hd__mux2_1
*I *147:C1 I *D sky130_fd_sc_hd__a211o_1
*I *145:X O *D sky130_fd_sc_hd__and2_1
*CAP
1 *146:C1 0.000454251
2 *154:A1 0
3 *147:C1 0.000534764
4 *145:X 0.000150909
5 *46:14 0.000685187
6 *46:12 0.000755582
7 *146:C1 *144:B1 2.83284e-06
8 *146:C1 *154:S 6.05161e-06
9 *146:C1 *166:CLK 1.46231e-05
10 *146:C1 *166:D 9.78079e-05
11 *146:C1 *82:23 0.000397639
12 *146:C1 *82:27 3.12359e-05
13 *147:C1 *147:A2 9.90367e-05
14 *147:C1 *154:A0 5.65955e-05
15 *147:C1 *179:A 0
16 *147:C1 *183:A 6.9253e-05
17 *147:C1 *197:A 5.66647e-05
18 *147:C1 *205:A 6.77106e-05
19 *147:C1 *54:22 0.000123416
20 *46:12 *140:A 0.000187465
21 *46:12 *154:A0 0.000412173
22 *46:12 *47:17 0
23 *46:12 *82:27 0
24 *46:12 *82:37 0.00020042
25 *46:14 *154:A0 0.000185118
26 *46:14 *154:S 1.98839e-05
27 *144:A3 *147:C1 9.90367e-05
28 *167:RESET_B *147:C1 1.41706e-05
29 *45:12 *147:C1 2.83284e-06
30 *45:22 *147:C1 0.000102521
*RES
1 *145:X *46:12 23.8357 
2 *46:12 *46:14 2.17857 
3 *46:14 *147:C1 28.6571 
4 *46:14 *154:A1 9.3 
5 *46:12 *146:C1 26.4786 
*END

*D_NET *47 0.0040082
*CONN
*I *154:A0 I *D sky130_fd_sc_hd__mux2_1
*I *150:C1 I *D sky130_fd_sc_hd__a211o_1
*I *149:C1 I *D sky130_fd_sc_hd__a211oi_1
*I *157:A I *D sky130_fd_sc_hd__or2_1
*I *148:X O *D sky130_fd_sc_hd__and2b_1
*CAP
1 *154:A0 0.000334762
2 *150:C1 0.000336055
3 *149:C1 4.18139e-05
4 *157:A 0.00047114
5 *148:X 0
6 *47:17 0.000524348
7 *47:4 0.000952381
8 *149:C1 *178:A 0
9 *150:C1 *156:B 2.59355e-05
10 *150:C1 *157:B 3.18676e-05
11 *154:A0 *140:A 1.51571e-05
12 *154:A0 *154:S 9.83388e-05
13 *154:A0 *179:A 0
14 *154:A0 *54:22 5.78906e-05
15 *157:A *140:A 0.000162684
16 *47:17 *148:B 7.70035e-05
17 *47:17 *178:A 0
18 *147:C1 *154:A0 5.65955e-05
19 *149:A1 *150:C1 2.84109e-05
20 *149:A2 *149:C1 0
21 *149:A2 *157:A 4.45768e-06
22 *150:A1 *150:C1 0
23 *153:B1 *150:C1 3.79877e-06
24 *41:35 *149:C1 2.8266e-06
25 *41:39 *150:C1 5.43733e-05
26 *41:41 *150:C1 0.000119677
27 *45:28 *150:C1 1.13883e-05
28 *46:12 *154:A0 0.000412173
29 *46:12 *47:17 0
30 *46:14 *154:A0 0.000185118
*RES
1 *148:X *47:4 9.3 
2 *47:4 *157:A 15.3893 
3 *47:4 *47:17 7.05357 
4 *47:17 *149:C1 14.5321 
5 *47:17 *150:C1 18.8893 
6 *47:4 *154:A0 26.0143 
*END

*D_NET *48 0.000670423
*CONN
*I *152:B I *D sky130_fd_sc_hd__nor2_1
*I *151:X O *D sky130_fd_sc_hd__xor2_1
*CAP
1 *152:B 7.08943e-05
2 *151:X 7.08943e-05
3 *152:B *160:A 5.33005e-05
4 *152:B *161:A 3.51442e-05
5 *152:B *165:CLK 5.33005e-05
6 *152:B *178:A 0.000200406
7 *152:B *56:73 3.34366e-05
8 *152:B *56:75 0.000153047
*RES
1 *151:X *152:B 30.6893 
*END

*D_NET *49 0.000723221
*CONN
*I *153:C1 I *D sky130_fd_sc_hd__a211o_1
*I *152:Y O *D sky130_fd_sc_hd__nor2_1
*CAP
1 *153:C1 0.000103858
2 *152:Y 0.000103858
3 *153:C1 *151:A 1.18064e-05
4 *153:C1 *151:B 0.00010236
5 *153:C1 *169:CLK 1.32552e-05
6 *153:C1 *178:A 0.000104974
7 *153:A1 *153:C1 8.29398e-06
8 *41:24 *153:C1 0.000274815
*RES
1 *152:Y *153:C1 31.5464 
*END

*D_NET *50 0.00182569
*CONN
*I *155:B2 I *D sky130_fd_sc_hd__a22o_1
*I *154:X O *D sky130_fd_sc_hd__mux2_1
*CAP
1 *155:B2 0.000585558
2 *154:X 0.000585558
3 *155:B2 *155:A2 0.000118052
4 *155:B2 *54:22 0.000299383
5 *155:B2 *77:10 0.000125724
6 *171:RESET_B *155:B2 8.91726e-05
7 *192:A *155:B2 0
8 *41:49 *155:B2 2.22406e-05
*RES
1 *154:X *155:B2 37.1357 
*END

*D_NET *51 0.000327532
*CONN
*I *157:B I *D sky130_fd_sc_hd__or2_1
*I *156:X O *D sky130_fd_sc_hd__and2_1
*CAP
1 *157:B 7.74913e-05
2 *156:X 7.74913e-05
3 *157:B *56:73 3.5707e-05
4 *150:C1 *157:B 3.18676e-05
5 *177:A *157:B 0.000104974
*RES
1 *156:X *157:B 29.475 
*END

*D_NET *52 0.00414319
*CONN
*I *179:A I *D sky130_fd_sc_hd__clkbuf_16
*I *178:A I *D sky130_fd_sc_hd__clkbuf_16
*I *177:X O *D sky130_fd_sc_hd__clkbuf_16
*CAP
1 *179:A 0.000557566
2 *178:A 0.000448072
3 *177:X 0.000254954
4 *52:8 0.00126059
5 *178:A *148:B 0
6 *178:A *151:A 1.00375e-05
7 *178:A *161:A 8.46468e-05
8 *178:A *53:10 0
9 *178:A *53:23 0
10 *178:A *56:73 0.000103852
11 *178:A *83:10 0.000146474
12 *178:A *83:25 0.000171375
13 *179:A *144:A2 3.14816e-05
14 *179:A *154:S 0
15 *179:A *183:A 7.17836e-05
16 *179:A *184:A 0
17 *179:A *197:A 0.000103285
18 *179:A *205:A 6.96162e-05
19 *179:A *54:10 0
20 *179:A *54:14 0
21 *179:A *56:73 2.58997e-05
22 *52:8 *56:53 0.000192282
23 phy_data_out[8] *179:A 7.83587e-05
24 *147:C1 *179:A 0
25 *149:A2 *178:A 0.000100823
26 *149:C1 *178:A 0
27 *152:B *178:A 0.000200406
28 *153:C1 *178:A 0.000104974
29 *154:A0 *179:A 0
30 *177:A *179:A 0
31 *189:A *178:A 0
32 *41:24 *178:A 2.26327e-05
33 *41:35 *178:A 0.000104077
34 *45:12 *179:A 0
35 *47:17 *178:A 0
*RES
1 *177:X *52:8 17.2107 
2 *52:8 *178:A 25.4607 
3 *52:8 *179:A 24.55 
*END

*D_NET *53 0.00472249
*CONN
*I *170:CLK I *D sky130_fd_sc_hd__dfrtp_1
*I *168:CLK I *D sky130_fd_sc_hd__dfrtp_1
*I *165:CLK I *D sky130_fd_sc_hd__dfrtp_1
*I *169:CLK I *D sky130_fd_sc_hd__dfrtp_1
*I *178:X O *D sky130_fd_sc_hd__clkbuf_16
*CAP
1 *170:CLK 0.000211463
2 *168:CLK 0
3 *165:CLK 0.000542116
4 *169:CLK 0.000520139
5 *178:X 0.000222503
6 *53:27 0.000600681
7 *53:23 0.000501071
8 *53:10 0.000973685
9 *165:CLK *151:A 8.56752e-05
10 *165:CLK *160:A 8.40933e-05
11 *165:CLK *83:6 2.89114e-05
12 *169:CLK *151:B 0.00017396
13 *53:10 *199:A 0.000126792
14 *152:B *165:CLK 5.33005e-05
15 *153:B1 *170:CLK 9.85874e-05
16 *153:B1 *53:23 4.6108e-05
17 *153:B1 *53:27 4.96113e-05
18 *153:C1 *169:CLK 1.32552e-05
19 *165:D *165:CLK 0.000158761
20 *165:RESET_B *165:CLK 4.96155e-05
21 *168:D *53:23 9.76123e-05
22 *168:D *53:27 2.59355e-05
23 *168:RESET_B *165:CLK 3.67252e-05
24 *168:RESET_B *53:27 2.18902e-05
25 *178:A *53:10 0
26 *178:A *53:23 0
27 *41:35 *170:CLK 0
*RES
1 *178:X *53:10 17.0143 
2 *53:10 *169:CLK 20.4071 
3 *53:10 *53:23 3.46429 
4 *53:23 *53:27 5.85714 
5 *53:27 *165:CLK 20.5143 
6 *53:27 *168:CLK 9.3 
7 *53:23 *170:CLK 17.1214 
*END

*D_NET *54 0.00434542
*CONN
*I *172:CLK I *D sky130_fd_sc_hd__dfrtp_1
*I *166:CLK I *D sky130_fd_sc_hd__dfrtp_1
*I *167:CLK I *D sky130_fd_sc_hd__dfrtp_1
*I *171:CLK I *D sky130_fd_sc_hd__dfrtp_1
*I *179:X O *D sky130_fd_sc_hd__clkbuf_16
*CAP
1 *172:CLK 4.73856e-05
2 *166:CLK 4.49404e-05
3 *167:CLK 0
4 *171:CLK 5.36542e-05
5 *179:X 0.000367739
6 *54:22 0.000714869
7 *54:14 0.000840553
8 *54:10 0.000549523
9 *166:CLK *154:S 5.52238e-05
10 *171:CLK *142:B 0.00017309
11 *172:CLK *205:A 5.98245e-05
12 *54:10 *144:A1 6.0485e-05
13 *54:10 *144:B1 5.49544e-05
14 *54:10 *154:S 0.000178479
15 *54:14 *144:A1 3.71887e-05
16 *54:14 *154:S 0.000121223
17 *54:14 *184:A 4.96934e-06
18 *54:22 *154:S 5.83661e-05
19 phy_data_out[8] *172:CLK 9.66977e-05
20 *146:C1 *166:CLK 1.46231e-05
21 *147:C1 *54:22 0.000123416
22 *154:A0 *54:22 5.78906e-05
23 *155:B2 *54:22 0.000299383
24 *167:D *54:22 2.89114e-05
25 *172:D *54:10 0.000100831
26 *172:D *54:14 9.25014e-06
27 *179:A *54:10 0
28 *179:A *54:14 0
29 *193:A *171:CLK 0.000174797
30 *196:A *54:10 1.71482e-05
*RES
1 *179:X *54:10 19.7464 
2 *54:10 *54:14 7.35714 
3 *54:14 *54:22 13.4286 
4 *54:22 *171:CLK 20.55 
5 *54:22 *167:CLK 9.3 
6 *54:14 *166:CLK 10.2464 
7 *54:10 *172:CLK 15.175 
*END

*D_NET *55 0.00258365
*CONN
*I *154:S I *D sky130_fd_sc_hd__mux2_1