*SPEF "ieee 1481-1999"
*DESIGN "eth_phy_1g"
*DATE "20:26:00 Thursday February 12, 2026"
*VENDOR "The OpenROAD Project"
*PROGRAM "OpenROAD"
*VERSION "edf00dff99f6c40d67a30c0e22a8191c5d2ed9d6"
*DESIGN_FLOW "NAME_SCOPE LOCAL" "PIN_CAP NONE"
*DIVIDER /
*DELIMITER :
*BUS_DELIMITER []
*T_UNIT 1 NS
*C_UNIT 1 PF
*R_UNIT 1 OHM
*L_UNIT 1 HENRY

*NAME_MAP
*3 clk
*4 eth_data_in[0]
*5 eth_data_in[1]
*6 eth_data_in[2]
*7 eth_data_in[3]
*8 eth_data_in[4]
*9 eth_data_in[5]
*10 eth_data_in[6]
*11 eth_data_in[7]
*12 eth_valid_in
*13 phy_data_out[0]
*14 phy_data_out[1]
*15 phy_data_out[2]
*16 phy_data_out[3]
*17 phy_data_out[4]
*18 phy_data_out[5]
*19 phy_data_out[6]
*20 phy_data_out[7]
*21 phy_data_out[8]
*22 phy_data_out[9]
*23 phy_valid_out
*24 rst
*25 _00_
*26 _01_
*27 _02_
*28 _03_
*29 _04_
*30 _05_
*31 _06_
*32 _07_
*33 _08_
*34 _09_
*35 _10_
*36 _11_
*37 _12_
*38 _13_
*39 _14_
*40 _15_
*41 _16_
*42 _17_
*43 _18_
*44 _19_
*45 _20_
*46 _21_
*47 _22_
*48 _23_
*49 _24_
*50 _25_
*51 _26_
*52 clknet_0_clk
*53 clknet_1_0__leaf_clk
*54 clknet_1_1__leaf_clk
*55 net1
*56 net10
*57 net11
*58 net12
*59 net13
*60 net14
*61 net15
*62 net16
*63 net17
*64 net18
*65 net19
*66 net2
*67 net20
*68 net21
*69 net22
*70 net23
*71 net24
*72 net25
*73 net26
*74 net27
*75 net28
*76 net3
*77 net4
*78 net5
*79 net6
*80 net7
*81 net8
*82 net9
*83 u_pcs\.rd_pos
*84 FILLER_0_15
*85 FILLER_0_21
*86 FILLER_0_3
*87 FILLER_1_3
*88 FILLER_1_42
*89 FILLER_1_55
*90 FILLER_2_55
*91 FILLER_2_7
*92 FILLER_3_3
*93 FILLER_3_9
*94 FILLER_4_15
*95 FILLER_4_19
*96 FILLER_4_3
*97 FILLER_4_40
*98 FILLER_5_16
*99 FILLER_5_43
*100 FILLER_6_38
*101 FILLER_6_7
*102 FILLER_7_3
*103 FILLER_8_3
*104 FILLER_8_50
*105 FILLER_9_3
*106 PHY_EDGE_ROW_0_Left_10
*107 PHY_EDGE_ROW_0_Right_0
*108 PHY_EDGE_ROW_1_Left_11
*109 PHY_EDGE_ROW_1_Right_1
*110 PHY_EDGE_ROW_2_Left_12
*111 PHY_EDGE_ROW_2_Right_2
*112 PHY_EDGE_ROW_3_Left_13
*113 PHY_EDGE_ROW_3_Right_3
*114 PHY_EDGE_ROW_4_Left_14
*115 PHY_EDGE_ROW_4_Right_4
*116 PHY_EDGE_ROW_5_Left_15
*117 PHY_EDGE_ROW_5_Right_5
*118 PHY_EDGE_ROW_6_Left_16
*119 PHY_EDGE_ROW_6_Right_6
*120 PHY_EDGE_ROW_7_Left_17
*121 PHY_EDGE_ROW_7_Right_7
*122 PHY_EDGE_ROW_8_Left_18
*123 PHY_EDGE_ROW_8_Right_8
*124 PHY_EDGE_ROW_9_Left_19
*125 PHY_EDGE_ROW_9_Right_9
*126 TAP_TAPCELL_ROW_0_20
*127 TAP_TAPCELL_ROW_0_21
*128 TAP_TAPCELL_ROW_1_22
*129 TAP_TAPCELL_ROW_2_23
*130 TAP_TAPCELL_ROW_3_24
*131 TAP_TAPCELL_ROW_4_25
*132 TAP_TAPCELL_ROW_5_26
*133 TAP_TAPCELL_ROW_6_27
*134 TAP_TAPCELL_ROW_7_28
*135 TAP_TAPCELL_ROW_8_29
*136 TAP_TAPCELL_ROW_9_30
*137 TAP_TAPCELL_ROW_9_31
*138 _27_
*139 _28_
*140 _29_
*141 _30_
*142 _31_
*143 _32_
*144 _33_
*145 _34_
*146 _35_
*147 _36_
*148 _37_
*149 _38_
*150 _39_
*151 _40_
*152 _41_
*153 _42_
*154 _43_
*155 _44_
*156 _45_
*157 _46_
*158 _47_
*159 _48_
*160 _49_
*161 _50_
*162 _51_
*163 _52_
*164 _53_
*165 _54_
*166 _55_
*167 _56_
*168 _57_
*169 _58_
*170 _59_
*171 _60_
*172 _61_
*173 _62_
*174 _63_
*175 _64_
*176 _65_
*177 clkbuf_0_clk
*178 clkbuf_1_0__f_clk
*179 clkbuf_1_1__f_clk
*180 hold1
*181 hold2
*182 hold3
*183 hold4
*184 hold5
*185 hold6
*186 hold7
*187 input1
*188 input10
*189 input2
*190 input3
*191 input4
*192 input5
*193 input6
*194 input7
*195 input8
*196 input9
*197 output11
*198 output12
*199 output13
*200 output14
*201 output15
*202 output16
*203 output17
*204 output18
*205 output19
*206 output20
*207 output21

*PORTS
clk I
eth_data_in[0] I
eth_data_in[1] I
eth_data_in[2] I
eth_data_in[3] I
eth_data_in[4] I
eth_data_in[5] I
eth_data_in[6] I
eth_data_in[7] I
eth_valid_in I
phy_data_out[0] O
phy_data_out[1] O
phy_data_out[2] O
phy_data_out[3] O
phy_data_out[4] O
phy_data_out[5] O
phy_data_out[6] O
phy_data_out[7] O
phy_data_out[8] O
phy_data_out[9] O
phy_valid_out O
rst I

*D_NET *3 0.00209689
*CONN
*P clk I
*I *177:A I *D sky130_fd_sc_hd__clkbuf_16
*CAP
1 clk 0.000850096
2 *177:A 0.000850096
3 *177:A phy_data_out[0] 0
4 *177:A phy_data_out[3] 3.14094e-05
5 *177:A *157:B 9.71067e-05
6 *177:A *179:A 0
7 *177:A *191:A 6.59989e-05
8 *177:A *45:22 0.000202186
9 *177:A *56:73 0
*RES
1 clk *177:A 9.8371 
*END

*D_NET *4 0.00147031
*CONN
*P eth_data_in[0] I
*I *187:A I *D sky130_fd_sc_hd__clkbuf_1
*CAP
1 eth_data_in[0] 0.000585362
2 *187:A 0.000585362
3 *187:A phy_data_out[7] 0.00012657
4 *187:A *154:S 9.29176e-05
5 *187:A *196:A 0
6 *187:A *202:A 0
7 *187:A *204:A 8.01019e-05
*RES
1 eth_data_in[0] *187:A 14.745 
*END

*D_NET *5 0.00194624
*CONN
*P eth_data_in[1] I
*I *189:A I *D sky130_fd_sc_hd__clkbuf_1
*CAP
1 eth_data_in[1] 0.000452895
2 *189:A 0.000452895
3 *189:A *173:A 0.000501519
4 *189:A *178:A 0
5 *189:A *199:A 0.000538935
*RES
1 eth_data_in[1] *189:A 14.835 
*END

*D_NET *6 0.00113501
*CONN
*P eth_data_in[2] I
*I *190:A I *D sky130_fd_sc_hd__clkbuf_1
*CAP
1 eth_data_in[2] 0.0004159
2 *190:A 0.0004159
3 *190:A phy_data_out[5] 0
4 *190:A *176:A 4.82919e-05
5 *190:A *192:A 0.000211296
6 *190:A *193:A 2.04531e-05
7 *190:A *194:A 1.91597e-05
8 *190:A *202:A 4.00541e-06
*RES
1 eth_data_in[2] *190:A 12.33 
*END

*D_NET *7 0.00116574
*CONN
*P eth_data_in[3] I
*I *191:A I *D sky130_fd_sc_hd__clkbuf_1
*CAP
1 eth_data_in[3] 0.000397752
2 *191:A 0.000397752
3 *191:A phy_data_out[0] 0.000100827
4 *191:A *193:A 8.8266e-05
5 *191:A *197:A 0.000115146
6 *177:A *191:A 6.59989e-05
*RES
1 eth_data_in[3] *191:A 10.3552 
*END

*D_NET *8 0.00273311
*CONN
*P eth_data_in[4] I
*I *192:A I *D sky130_fd_sc_hd__clkbuf_1
*CAP
1 eth_data_in[4] 0.000971859
2 *192:A 0.000971859
3 *192:A phy_data_out[5] 0
4 *192:A *142:B 3.26822e-05
5 *192:A *142:D 5.73243e-05
6 *192:A *155:A1 3.99313e-05
7 *192:A *155:A2 5.69248e-06
8 *192:A *155:B1 2.69493e-05
9 *192:A *155:B2 0
10 *192:A *167:D 0.000132671
11 *192:A *171:D 9.30717e-05
12 *192:A *193:A 0
13 *192:A *194:A 7.32038e-05
14 *192:A *41:49 0
15 *192:A *45:12 0
16 *192:A *77:10 0.000116568
17 *190:A *192:A 0.000211296
*RES
1 eth_data_in[4] *192:A 19.1412 
*END

*D_NET *9 0.0025754
*CONN
*P eth_data_in[5] I
*I *193:A I *D sky130_fd_sc_hd__clkbuf_1
*CAP
1 eth_data_in[5] 0.000553728
2 *193:A 0.000553728
3 *193:A *142:A 0.000466141
4 *193:A *142:B 0.000296505
5 *193:A *142:D 4.21256e-05
6 *193:A *143:B 1.81185e-05
7 *193:A *171:CLK 0.000161623
8 *193:A *194:A 7.32038e-05
9 *193:A *195:A 0.000112606
10 *193:A *197:A 8.65961e-05
11 *193:A *67:31 5.16418e-05
12 *193:A *76:8 5.06648e-05
13 *190:A *193:A 2.04531e-05
14 *191:A *193:A 8.8266e-05
15 *192:A *193:A 0
*RES
1 eth_data_in[5] *193:A 14.5448 
*END

*D_NET *10 0.00184367
*CONN
*P eth_data_in[6] I
*I *194:A I *D sky130_fd_sc_hd__clkbuf_1
*CAP
1 eth_data_in[6] 0.000491581
2 *194:A 0.000491581
3 *194:A *142:D 0.000198945
4 *194:A *176:A 0.0001249
5 *194:A *202:A 0.000120819
6 *194:A *204:A 5.30132e-05
7 *194:A *67:31 0.000197264
8 *190:A *194:A 1.91597e-05
9 *192:A *194:A 7.32038e-05
10 *193:A *194:A 7.32038e-05
*RES
1 eth_data_in[6] *194:A 13.3985 
*END

*D_NET *11 0.00517908
*CONN
*P eth_data_in[7] I
*I *195:A I *D sky130_fd_sc_hd__clkbuf_1
*CAP
1 eth_data_in[7] 0.00152566
2 *195:A 0.00152566
3 *195:A phy_data_out[0] 0
4 *195:A phy_data_out[8] 1.68736e-05
5 *195:A phy_data_out[9] 6.35352e-05
6 *195:A *142:C 0.00176151
7 *195:A *201:A 0.000173229
8 *195:A *82:23 0
9 *193:A *195:A 0.000112606
*RES
1 eth_data_in[7] *195:A 9.42857 
*END

*D_NET *12 0.00202181
*CONN
*P eth_valid_in I
*I *196:A I *D sky130_fd_sc_hd__buf_1
*CAP
1 eth_valid_in 0.000860352
2 *196:A 0.000860352
3 *196:A *144:B1 6.13596e-05
4 *196:A *154:S 5.01257e-05
5 *196:A *54:10 1.77747e-05
6 *196:A *82:6 0.000171845
7 *187:A *196:A 0
*RES
1 eth_valid_in *196:A 18.54 
*END

*D_NET *13 0.000622807
*CONN
*P phy_data_out[0] O
*I *197:X O *D sky130_fd_sc_hd__buf_2
*CAP
1 phy_data_out[0] 0.00023002
2 *197:X 0.00023002
3 phy_data_out[0] phy_data_out[9] 6.19406e-05
4 phy_data_out[0] *142:A 0
5 *177:A phy_data_out[0] 0
6 *191:A phy_data_out[0] 0.000100827
7 *195:A phy_data_out[0] 0
*RES
1 *197:X phy_data_out[0] 6.0935 
*END

*D_NET *14 0.00156915
*CONN
*P phy_data_out[1] O
*I *198:X O *D sky130_fd_sc_hd__buf_2
*CAP
1 phy_data_out[1] 0.000727304
2 *198:X 0.000727304
3 phy_data_out[1] phy_data_out[2] 0.000114541
4 phy_data_out[1] phy_data_out[6] 0
*RES
1 *198:X phy_data_out[1] 5.77903 
*END

*D_NET *15 0.00136893
*CONN
*P phy_data_out[2] O
*I *199:X O *D sky130_fd_sc_hd__buf_2
*CAP
1 phy_data_out[2] 0.000366161
2 *199:X 0.000366161
3 phy_data_out[2] phy_data_out[6] 0.000122288
4 phy_data_out[2] *170:RESET_B 0.000281251
5 phy_data_out[2] *173:A 0
6 phy_data_out[2] *41:14 0
7 phy_data_out[2] *58:10 0.000118527
8 phy_data_out[1] phy_data_out[2] 0.000114541
*RES
1 *199:X phy_data_out[2] 8.6481 
*END

*D_NET *16 0.000590999
*CONN
*P phy_data_out[3] O
*I *200:X O *D sky130_fd_sc_hd__buf_2
*CAP
1 phy_data_out[3] 0.000279795
2 *200:X 0.000279795
3 *177:A phy_data_out[3] 3.14094e-05
*RES
1 *200:X phy_data_out[3] 7.1793 
*END

*D_NET *17 0.000938325
*CONN
*P phy_data_out[4] O
*I *201:X O *D sky130_fd_sc_hd__buf_2
*CAP
1 phy_data_out[4] 0.000368631
2 *201:X 0.000368631
3 phy_data_out[4] phy_data_out[8] 0.000140372
4 phy_data_out[4] *201:A 6.06899e-05
*RES
1 *201:X phy_data_out[4] 6.21637 
*END

*D_NET *18 0.0010806
*CONN
*P phy_data_out[5] O
*I *202:X O *D sky130_fd_sc_hd__buf_2
*CAP
1 phy_data_out[5] 0.000500224
2 *202:X 0.000500224
3 phy_data_out[5] phy_data_out[7] 0
4 phy_data_out[5] *202:A 4.99619e-05
5 phy_data_out[5] *204:A 3.01904e-05
6 *190:A phy_data_out[5] 0
7 *192:A phy_data_out[5] 0
*RES
1 *202:X phy_data_out[5] 12.06 
*END

*D_NET *19 0.00166204
*CONN
*P phy_data_out[6] O
*I *203:X O *D sky130_fd_sc_hd__buf_2
*CAP
1 phy_data_out[6] 0.000687888
2 *203:X 0.000687888
3 phy_data_out[6] *180:A 0.00011631
4 phy_data_out[6] *203:A 4.76682e-05
5 phy_data_out[6] *41:14 0
6 phy_data_out[1] phy_data_out[6] 0
7 phy_data_out[2] phy_data_out[6] 0.000122288
*RES
1 *203:X phy_data_out[6] 7.19077 
*END

*D_NET *20 0.00111593
*CONN
*P phy_data_out[7] O
*I *204:X O *D sky130_fd_sc_hd__buf_2
*CAP
1 phy_data_out[7] 0.000494679
2 *204:X 0.000494679
3 phy_data_out[5] phy_data_out[7] 0
4 *187:A phy_data_out[7] 0.00012657
*RES
1 *204:X phy_data_out[7] 12.06 
*END

*D_NET *21 0.00340904
*CONN
*P phy_data_out[8] O
*I *205:X O *D sky130_fd_sc_hd__buf_2
*CAP
1 phy_data_out[8] 0.00120225
2 *205:X 0.00120225
3 phy_data_out[8] phy_valid_out 9.84329e-05
4 phy_data_out[8] *142:C 2.1832e-05
5 phy_data_out[8] *144:A3 1.91597e-05
6 phy_data_out[8] *146:A2 3.19787e-05
7 phy_data_out[8] *147:A2 0.000158965
8 phy_data_out[8] *172:CLK 8.41307e-05
9 phy_data_out[8] *174:A 1.93765e-05
10 phy_data_out[8] *179:A 7.23533e-05
11 phy_data_out[8] *180:A 0
12 phy_data_out[8] *185:A 7.5416e-05
13 phy_data_out[8] *205:A 0.000250008
14 phy_data_out[8] *65:6 1.56428e-05
15 phy_data_out[4] phy_data_out[8] 0.000140372
16 *195:A phy_data_out[8] 1.68736e-05
*RES
1 *205:X phy_data_out[8] 19.326 
*END

*D_NET *22 0.000714945
*CONN
*P phy_data_out[9] O
*I *206:X O *D sky130_fd_sc_hd__buf_2
*CAP
1 phy_data_out[9] 0.000257561
2 *206:X 0.000257561
3 phy_data_out[9] *206:A 5.70454e-05
4 phy_data_out[9] *67:31 1.73021e-05
5 phy_data_out[0] phy_data_out[9] 6.19406e-05
6 *195:A phy_data_out[9] 6.35352e-05
*RES
1 *206:X phy_data_out[9] 6.89023 
*END

*D_NET *23 0.00199894
*CONN
*P phy_valid_out O
*I *207:X O *D sky130_fd_sc_hd__buf_2
*CAP
1 phy_valid_out 0.000473834
2 *207:X 0.000473834
3 phy_valid_out *146:A2 0
4 phy_valid_out *170:RESET_B 0.000161731
5 phy_valid_out *172:RESET_B 0.00045063
6 phy_valid_out *180:A 0.000158417
7 phy_valid_out *201:A 0
8 phy_valid_out *207:A 1.98705e-05
9 phy_valid_out *41:14 0
10 phy_valid_out *56:22 9.54399e-05
11 phy_valid_out *63:27 6.67538e-05
12 phy_data_out[8] phy_valid_out 9.84329e-05
*RES
1 *207:X phy_valid_out 11.6516 
*END

*D_NET *24 0.000898426
*CONN
*P rst I
*I *180:A I *D sky130_fd_sc_hd__dlygate4sd3_1
*CAP
1 rst 0.000311849
2 *180:A 0.000311849
3 *180:A *146:A2 0
4 *180:A *41:14 0
5 phy_data_out[6] *180:A 0.00011631
6 phy_data_out[8] *180:A 0
7 phy_valid_out *180:A 0.000158417
*RES
1 rst *180:A 6.1581 
*END

*D_NET *25 0.000325812
*CONN
*I *165:RESET_B I *D sky130_fd_sc_hd__dfrtp_1
*I *141:Y O *D sky130_fd_sc_hd__inv_2
*CAP
1 *165:RESET_B 9.16665e-05
2 *141:Y 9.16665e-05
3 *165:RESET_B *165:CLK 4.70393e-05
4 *165:RESET_B *169:D 0
5 *165:RESET_B *56:75 9.54399e-05
*RES
1 *141:Y *165:RESET_B 7.4675 
*END

*D_NET *26 0.00193531
*CONN
*I *166:RESET_B I *D sky130_fd_sc_hd__dfrtp_1
*I *158:Y O *D sky130_fd_sc_hd__inv_2
*CAP
1 *166:RESET_B 0.000596142
2 *158:Y 0.000596142
3 *166:RESET_B *158:A 5.83121e-06
4 *166:RESET_B *172:RESET_B 1.08723e-05
5 *166:RESET_B *207:A 0.000669383
6 *166:RESET_B *56:22 5.69397e-05
*RES
1 *158:Y *166:RESET_B 17.1125 
*END

*D_NET *27 0.000317158
*CONN
*I *167:RESET_B I *D sky130_fd_sc_hd__dfrtp_1
*I *159:Y O *D sky130_fd_sc_hd__inv_2
*CAP
1 *167:RESET_B 7.95371e-05
2 *159:Y 7.95371e-05
3 *167:RESET_B *147:C1 1.43521e-05
4 *167:RESET_B *197:A 4.82919e-05
5 *167:RESET_B *45:22 9.54399e-05
*RES
1 *159:Y *167:RESET_B 7.175 
*END

*D_NET *28 0.000704568
*CONN
*I *168:RESET_B I *D sky130_fd_sc_hd__dfrtp_1
*I *160:Y O *D sky130_fd_sc_hd__inv_2
*CAP
1 *168:RESET_B 0.000297233
2 *160:Y 0.000297233
3 *168:RESET_B *153:B1 6.91939e-06
4 *168:RESET_B *165:CLK 3.51072e-05
5 *168:RESET_B *168:D 4.66108e-05
6 *168:RESET_B *53:27 2.14655e-05
*RES
1 *160:Y *168:RESET_B 5.5675 
*END

*D_NET *29 0.00066684
*CONN
*I *169:RESET_B I *D sky130_fd_sc_hd__dfrtp_1
*I *161:Y O *D sky130_fd_sc_hd__inv_2
*CAP
1 *169:RESET_B 0.000329154
2 *161:Y 0.000329154
3 *169:RESET_B *161:A 0
4 *169:RESET_B *169:D 8.53113e-06
5 *169:RESET_B *56:75 0
*RES
1 *161:Y *169:RESET_B 10.0625 
*END

*D_NET *30 0.0015307
*CONN
*I *170:RESET_B I *D sky130_fd_sc_hd__dfrtp_1
*I *162:Y O *D sky130_fd_sc_hd__inv_2
*CAP
1 *170:RESET_B 0.000293317
2 *162:Y 0.000293317
3 *170:RESET_B *162:A 9.29124e-05
4 *170:RESET_B *173:A 3.90192e-05
5 *170:RESET_B *41:14 0
6 *170:RESET_B *56:14 0.000154801
7 *170:RESET_B *56:22 0.0001188
8 *170:RESET_B *63:27 9.55473e-05
9 phy_data_out[2] *170:RESET_B 0.000281251
10 phy_valid_out *170:RESET_B 0.000161731
*RES
1 *162:Y *170:RESET_B 13.7975 
*END

*D_NET *31 0.000710162
*CONN
*I *171:RESET_B I *D sky130_fd_sc_hd__dfrtp_1
*I *163:Y O *D sky130_fd_sc_hd__inv_2
*CAP
1 *171:RESET_B 0.000106869
2 *163:Y 0.000106869
3 *171:RESET_B *155:B2 8.71001e-05
4 *171:RESET_B *41:49 0.000336837
5 *171:RESET_B *77:10 7.24866e-05
*RES
1 *163:Y *171:RESET_B 9.53 
*END

*D_NET *32 0.00197608
*CONN
*I *172:RESET_B I *D sky130_fd_sc_hd__dfrtp_1
*I *164:Y O *D sky130_fd_sc_hd__inv_2
*CAP
1 *172:RESET_B 0.000447902
2 *164:Y 0.000447902
3 *172:RESET_B *201:A 0
4 *172:RESET_B *207:A 0.000463574
5 *172:RESET_B *65:6 0.000155197
6 phy_valid_out *172:RESET_B 0.00045063
7 *166:RESET_B *172:RESET_B 1.08723e-05
*RES
1 *164:Y *172:RESET_B 16.3325 
*END

*D_NET *33 0.00143884
*CONN
*I *165:D I *D sky130_fd_sc_hd__dfrtp_1
*I *157:X O *D sky130_fd_sc_hd__or2_1
*CAP
1 *165:D 0.000419122
2 *157:X 0.000419122
3 *165:D *165:CLK 0.000147841
4 *165:D *169:D 0.000183738
5 *165:D *41:49 0.000135903
6 *165:D *45:22 0.000106682
7 *165:D *45:28 2.64352e-05
8 *165:D *56:73 0
*RES
1 *157:X *165:D 14.955 
*END

*D_NET *34 0.000812376
*CONN
*I *167:D I *D sky130_fd_sc_hd__dfrtp_1
*I *155:X O *D sky130_fd_sc_hd__a22o_1
*CAP
1 *167:D 0.000133624
2 *155:X 0.000133624
3 *167:D *142:B 0.000290188
4 *167:D *171:D 9.47454e-05
5 *167:D *54:22 2.75229e-05
6 *192:A *167:D 0.000132671
*RES
1 *155:X *167:D 11.58 
*END

*D_NET *35 0.000748745
*CONN
*I *168:D I *D sky130_fd_sc_hd__dfrtp_1
*I *153:X O *D sky130_fd_sc_hd__a211o_1
*CAP
1 *168:D 0.000163223
2 *153:X 0.000163223
3 *168:D *153:B1 9.03138e-05
4 *168:D *41:14 0.000123592
5 *168:D *41:24 4.77719e-05
6 *168:D *53:23 8.90199e-05
7 *168:D *53:27 2.49909e-05
8 *168:RESET_B *168:D 4.66108e-05
*RES
1 *153:X *168:D 10.26 
*END

*D_NET *36 0.000749636
*CONN
*I *169:D I *D sky130_fd_sc_hd__dfrtp_1
*I *150:X O *D sky130_fd_sc_hd__a211o_1
*CAP
1 *169:D 0.000247255
2 *150:X 0.000247255
3 *169:D *150:A2 1.61831e-05
4 *169:D *41:49 4.66742e-05
5 *169:D *56:73 0
6 *169:D *56:75 0
7 *165:D *169:D 0.000183738
8 *165:RESET_B *169:D 0
9 *169:RESET_B *169:D 8.53113e-06
*RES
1 *150:X *169:D 11.505 
*END

*D_NET *37 0.000308488
*CONN
*I *170:D I *D sky130_fd_sc_hd__dfrtp_1
*I *149:Y O *D sky130_fd_sc_hd__a211oi_1
*CAP
1 *170:D 9.1667e-05
2 *149:Y 9.1667e-05
3 *170:D *153:B1 0.000125154
*RES
1 *149:Y *170:D 5.15 
*END

*D_NET *38 0.000735529
*CONN
*I *171:D I *D sky130_fd_sc_hd__dfrtp_1
*I *147:X O *D sky130_fd_sc_hd__a211o_1
*CAP
1 *171:D 0.000219228
2 *147:X 0.000219228
3 *171:D *144:A3 4.59462e-05
4 *171:D *155:A2 6.33103e-05
5 *167:D *171:D 9.47454e-05
6 *192:A *171:D 9.30717e-05
*RES
1 *147:X *171:D 10.5 
*END

*D_NET *39 0.000705478
*CONN
*I *172:D I *D sky130_fd_sc_hd__dfrtp_1
*I *146:Y O *D sky130_fd_sc_hd__a211oi_1
*CAP
1 *172:D 0.000209234
2 *146:Y 0.000209234
3 *172:D *144:A2 4.66108e-05
4 *172:D *144:A3 1.35324e-05
5 *172:D *146:B1 3.21854e-05
6 *172:D *154:S 9.30717e-05
7 *172:D *54:10 9.30787e-05
8 *172:D *54:14 8.53113e-06
*RES
1 *146:Y *172:D 10.515 
*END

*D_NET *40 0.000861204
*CONN
*I *146:A1 I *D sky130_fd_sc_hd__a211oi_1
*I *138:Y O *D sky130_fd_sc_hd__inv_2
*CAP
1 *146:A1 0.000366212
2 *138:Y 0.000366212
3 *146:A1 *146:A2 8.65905e-05
4 *146:A1 *185:A 4.21889e-05
5 *146:A1 *201:A 0
*RES
1 *138:Y *146:A1 11.625 
*END

*D_NET *41 0.0088011
*CONN
*I *146:A2 I *D sky130_fd_sc_hd__a211oi_1
*I *153:A1 I *D sky130_fd_sc_hd__a211o_1
*I *149:A1 I *D sky130_fd_sc_hd__a211oi_1
*I *156:A I *D sky130_fd_sc_hd__and2_1
*I *150:A1 I *D sky130_fd_sc_hd__a211o_1
*I *147:A1 I *D sky130_fd_sc_hd__a211o_1
*I *155:A1 I *D sky130_fd_sc_hd__a22o_1
*I *152:A I *D sky130_fd_sc_hd__nor2_1
*I *139:Y O *D sky130_fd_sc_hd__inv_2
*CAP
1 *146:A2 0.00029649
2 *153:A1 1.26746e-05
3 *149:A1 1.22336e-05
4 *156:A 0
5 *150:A1 2.22249e-05
6 *147:A1 4.10098e-05
7 *155:A1 0.000214655
8 *152:A 0
9 *139:Y 0.00021119
10 *41:49 0.000697272
11 *41:41 0.000547133
12 *41:39 0.000126555
13 *41:35 0.000160059
14 *41:24 0.000321453
15 *41:14 0.000768688
16 *41:8 0.00104681
17 *146:A2 *174:A 0
18 *146:A2 *185:A 8.65905e-05
19 *146:A2 *201:A 0.000443191
20 *146:A2 *56:53 2.4997e-05
21 *147:A1 *45:22 2.9331e-05
22 *149:A1 *150:C1 2.68526e-05
23 *149:A1 *45:28 2.10214e-05
24 *150:A1 *150:C1 0
25 *153:A1 *153:A2 9.53428e-06
26 *153:A1 *153:C1 8.50369e-06
27 *155:A1 *142:C 0.000285812
28 *155:A1 *155:B1 3.82072e-05
29 *41:8 *139:A 8.21969e-05
30 *41:14 *151:B 9.80943e-06
31 *41:14 *153:A2 0.00015504
32 *41:14 *173:A 0.000273695
33 *41:14 *198:A 0.000200615
34 *41:14 *56:14 8.71079e-05
35 *41:14 *56:53 5.39718e-05
36 *41:14 *58:10 3.68769e-05
37 *41:14 *63:27 0
38 *41:24 *151:A 0.000116165
39 *41:24 *151:B 5.94463e-05
40 *41:24 *153:C1 0.000243378
41 *41:24 *178:A 2.23407e-05
42 *41:35 *149:C1 2.97004e-06
43 *41:35 *151:A 7.47215e-05
44 *41:35 *170:CLK 0
45 *41:35 *178:A 0.000102346
46 *41:39 *150:C1 5.20339e-05
47 *41:39 *45:28 4.21973e-05
48 *41:41 *150:B1 4.82919e-05
49 *41:41 *150:C1 0.000106409
50 *41:41 *156:B 4.66108e-05
51 *41:41 *45:28 0.000271303
52 *41:49 *150:A2 4.66108e-05
53 *41:49 *155:B2 2.3531e-05
54 *41:49 *45:22 0.000341664
55 phy_data_out[2] *41:14 0
56 phy_data_out[6] *41:14 0
57 phy_data_out[8] *146:A2 3.19787e-05
58 phy_valid_out *146:A2 0
59 phy_valid_out *41:14 0
60 *146:A1 *146:A2 8.65905e-05
61 *165:D *41:49 0.000135903
62 *168:D *41:14 0.000123592
63 *168:D *41:24 4.77719e-05
64 *169:D *41:49 4.66742e-05
65 *170:RESET_B *41:14 0
66 *171:RESET_B *41:49 0.000336837
67 *180:A *146:A2 0
68 *180:A *41:14 0
69 *192:A *155:A1 3.99313e-05
70 *192:A *41:49 0
*RES
1 *139:Y *41:8 6.12 
2 *41:8 *41:14 13.835 
3 *41:14 *41:24 6.365 
4 *41:24 *152:A 3.6 
5 *41:24 *41:35 4.4 
6 *41:35 *41:39 1.155 
7 *41:39 *41:41 2.865 
8 *41:41 *41:49 12.9125 
9 *41:49 *155:A1 5.53337 
10 *41:49 *147:A1 4.3425 
11 *41:41 *150:A1 1.96 
12 *41:39 *156:A 1.6 
13 *41:35 *149:A1 2.05 
14 *41:14 *153:A1 1.96 
15 *41:8 *146:A2 10.875 
*END

*D_NET *42 0.000530795
*CONN
*I *149:A2 I *D sky130_fd_sc_hd__a211oi_1
*I *140:Y O *D sky130_fd_sc_hd__inv_2
*CAP
1 *149:A2 0.00018859
2 *140:Y 0.00018859
3 *149:A2 *140:A 1.19928e-05
4 *149:A2 *145:B 1.91597e-05
5 *149:A2 *149:C1 0
6 *149:A2 *157:A 4.39911e-06
7 *149:A2 *178:A 9.30717e-05
8 *149:A2 *83:25 2.49909e-05
*RES
1 *140:Y *149:A2 9.81 
*END

*D_NET *43 0.00318571
*CONN
*I *144:A3 I *D sky130_fd_sc_hd__o31a_1
*I *143:C I *D sky130_fd_sc_hd__nor3_1
*I *142:X O *D sky130_fd_sc_hd__or4_1
*CAP
1 *144:A3 0.000513213
2 *143:C 3.16615e-05
3 *142:X 0
4 *43:4 0.000544874
5 *143:C *143:B 0.000117825
6 *143:C *67:31 0.000120186
7 *144:A3 *142:C 6.58339e-05
8 *144:A3 *144:A1 0.000121547
9 *144:A3 *144:A2 0.000909501
10 *144:A3 *146:B1 0.000158716
11 *144:A3 *147:A2 0.000189561
12 *144:A3 *147:C1 8.65905e-05
13 *144:A3 *155:A2 0.000123225
14 *144:A3 *45:12 0.000124332
15 phy_data_out[8] *144:A3 1.91597e-05
16 *171:D *144:A3 4.59462e-05
17 *172:D *144:A3 1.35324e-05
*RES
1 *142:X *43:4 1.6 
2 *43:4 *143:C 6.98 
3 *43:4 *144:A3 16.48 
*END

*D_NET *44 0.000975607
*CONN
*I *155:B1 I *D sky130_fd_sc_hd__a22o_1
*I *143:Y O *D sky130_fd_sc_hd__nor3_1
*CAP
1 *155:B1 0.000358352
2 *143:Y 0.000358352
3 *155:B1 *143:A 9.22135e-05
4 *155:B1 *155:A2 8.89169e-05
5 *155:B1 *67:8 1.26173e-05
6 *155:A1 *155:B1 3.82072e-05
7 *192:A *155:B1 2.69493e-05
*RES
1 *143:Y *155:B1 11.88 
*END

*D_NET *45 0.00611925
*CONN
*I *146:B1 I *D sky130_fd_sc_hd__a211oi_1
*I *147:B1 I *D sky130_fd_sc_hd__a211o_1
*I *150:B1 I *D sky130_fd_sc_hd__a211o_1
*I *149:B1 I *D sky130_fd_sc_hd__a211oi_1
*I *153:B1 I *D sky130_fd_sc_hd__a211o_1
*I *144:X O *D sky130_fd_sc_hd__o31a_1
*CAP
1 *146:B1 0.000202725
2 *147:B1 0
3 *150:B1 2.2266e-05
4 *149:B1 0
5 *153:B1 0.000506947
6 *144:X 0
7 *45:28 0.000772431
8 *45:22 0.000692569
9 *45:12 0.000870992
10 *45:4 0.000668898
11 *153:B1 *150:C1 3.90873e-06
12 *153:B1 *170:CLK 9.23854e-05
13 *153:B1 *53:23 4.53323e-05
14 *153:B1 *53:27 4.7003e-05
15 *45:12 *144:A2 0.000350486
16 *45:12 *147:C1 2.99518e-06
17 *45:12 *179:A 0
18 *45:22 *147:C1 0.000106456
19 *45:28 *150:C1 1.16854e-05
20 *45:28 *56:73 0
21 *144:A3 *146:B1 0.000158716
22 *144:A3 *45:12 0.000124332
23 *147:A1 *45:22 2.9331e-05
24 *149:A1 *45:28 2.10214e-05
25 *165:D *45:22 0.000106682
26 *165:D *45:28 2.64352e-05
27 *167:RESET_B *45:22 9.54399e-05
28 *168:D *153:B1 9.03138e-05
29 *168:RESET_B *153:B1 6.91939e-06
30 *170:D *153:B1 0.000125154
31 *172:D *146:B1 3.21854e-05
32 *177:A *45:22 0.000202186
33 *192:A *45:12 0
34 *41:39 *45:28 4.21973e-05
35 *41:41 *150:B1 4.82919e-05
36 *41:41 *45:28 0.000271303
37 *41:49 *45:22 0.000341664
*RES
1 *144:X *45:4 1.6 
2 *45:4 *45:12 8.51 
3 *45:12 *45:22 11.16 
4 *45:22 *45:28 6.515 
5 *45:28 *153:B1 16.8 
6 *45:28 *149:B1 1.6 
7 *45:22 *150:B1 4.05 
8 *45:12 *147:B1 3.6 
9 *45:4 *146:B1 4.81 
*END

*D_NET *46 0.00429476
*CONN
*I *146:C1 I *D sky130_fd_sc_hd__a211oi_1
*I *154:A1 I *D sky130_fd_sc_hd__mux2_1
*I *147:C1 I *D sky130_fd_sc_hd__a211o_1
*I *145:X O *D sky130_fd_sc_hd__and2_1
*CAP
1 *146:C1 0.000399186
2 *154:A1 0
3 *147:C1 0.000459776
4 *145:X 0.000132185
5 *46:14 0.00059018
6 *46:12 0.000661774
7 *146:C1 *144:B1 2.99518e-06
8 *146:C1 *154:S 5.83121e-06
9 *146:C1 *166:CLK 1.41165e-05
10 *146:C1 *166:D 8.49101e-05
11 *146:C1 *82:23 0.000361532
12 *146:C1 *82:27 2.84864e-05
13 *147:C1 *147:A2 8.65905e-05
14 *147:C1 *154:A0 4.89295e-05
15 *147:C1 *179:A 0
16 *147:C1 *183:A 6.81237e-05
17 *147:C1 *197:A 5.47609e-05
18 *147:C1 *205:A 6.75058e-05
19 *147:C1 *54:22 0.000117101
20 *46:12 *140:A 0.000162777
21 *46:12 *154:A0 0.000372727
22 *46:12 *47:17 0
23 *46:12 *82:27 0
24 *46:12 *82:37 0.000185411
25 *46:14 *154:A0 0.00016031
26 *46:14 *154:S 1.91597e-05
27 *144:A3 *147:C1 8.65905e-05
28 *167:RESET_B *147:C1 1.43521e-05
29 *45:12 *147:C1 2.99518e-06
30 *45:22 *147:C1 0.000106456
*RES
1 *145:X *46:12 10.25 
2 *46:12 *46:14 1.83 
3 *46:14 *147:C1 14.3 
4 *46:14 *154:A1 1.6 
5 *46:12 *146:C1 12.47 
*END

*D_NET *47 0.00355907
*CONN
*I *154:A0 I *D sky130_fd_sc_hd__mux2_1
*I *150:C1 I *D sky130_fd_sc_hd__a211o_1
*I *149:C1 I *D sky130_fd_sc_hd__a211oi_1
*I *157:A I *D sky130_fd_sc_hd__or2_1
*I *148:X O *D sky130_fd_sc_hd__and2b_1
*CAP
1 *154:A0 0.000294025
2 *150:C1 0.000292729
3 *149:C1 3.80176e-05
4 *157:A 0.000413624
5 *148:X 0
6 *47:17 0.000459912
7 *47:4 0.000836814
8 *149:C1 *178:A 0
9 *150:C1 *156:B 2.49909e-05
10 *150:C1 *157:B 3.00381e-05
11 *154:A0 *140:A 1.43253e-05
12 *154:A0 *154:S 8.52845e-05
13 *154:A0 *179:A 0
14 *154:A0 *54:22 5.45311e-05
15 *157:A *140:A 0.000154418
16 *47:17 *148:B 7.01359e-05
17 *47:17 *178:A 0
18 *147:C1 *154:A0 4.89295e-05
19 *149:A1 *150:C1 2.68526e-05
20 *149:A2 *149:C1 0
21 *149:A2 *157:A 4.39911e-06
22 *150:A1 *150:C1 0
23 *153:B1 *150:C1 3.90873e-06
24 *41:35 *149:C1 2.97004e-06
25 *41:39 *150:C1 5.20339e-05
26 *41:41 *150:C1 0.000106409
27 *45:28 *150:C1 1.16854e-05
28 *46:12 *154:A0 0.000372727
29 *46:12 *47:17 0
30 *46:14 *154:A0 0.00016031
*RES
1 *148:X *47:4 1.6 
2 *47:4 *157:A 6.715 
3 *47:4 *47:17 4.145 
4 *47:17 *149:C1 4.215 
5 *47:17 *150:C1 7.875 
6 *47:4 *154:A0 12.08 
*END

*D_NET *48 0.000602502
*CONN
*I *152:B I *D sky130_fd_sc_hd__nor2_1
*I *151:X O *D sky130_fd_sc_hd__xor2_1
*CAP
1 *152:B 5.93885e-05
2 *151:X 5.93885e-05
3 *152:B *160:A 4.66108e-05
4 *152:B *161:A 3.25831e-05
5 *152:B *165:CLK 4.66108e-05
6 *152:B *178:A 0.000185398
7 *152:B *56:73 3.09233e-05
8 *152:B *56:75 0.000141599
*RES
1 *151:X *152:B 9.795 
*END

*D_NET *49 0.000652558
*CONN
*I *153:C1 I *D sky130_fd_sc_hd__a211o_1
*I *152:Y O *D sky130_fd_sc_hd__nor2_1
*CAP
1 *153:C1 9.16496e-05
2 *152:Y 9.16496e-05
3 *153:C1 *151:A 1.15688e-05
4 *153:C1 *151:B 9.5372e-05
5 *153:C1 *169:CLK 1.33293e-05
6 *153:C1 *178:A 9.71067e-05
7 *153:A1 *153:C1 8.50369e-06
8 *41:24 *153:C1 0.000243378
*RES
1 *152:Y *153:C1 10.515 
*END

*D_NET *50 0.00162451
*CONN
*I *155:B2 I *D sky130_fd_sc_hd__a22o_1
*I *154:X O *D sky130_fd_sc_hd__mux2_1
*CAP
1 *155:B2 0.00050222
2 *154:X 0.00050222
3 *155:B2 *155:A2 0.000108733
4 *155:B2 *54:22 0.000284551
5 *155:B2 *77:10 0.000116158
6 *171:RESET_B *155:B2 8.71001e-05
7 *192:A *155:B2 0
8 *41:49 *155:B2 2.3531e-05
*RES
1 *154:X *155:B2 15.21 
*END

*D_NET *51 0.000296431
*CONN
*I *157:B I *D sky130_fd_sc_hd__or2_1
*I *156:X O *D sky130_fd_sc_hd__and2_1
*CAP
1 *157:B 6.62091e-05
2 *156:X 6.62091e-05
3 *157:B *56:73 3.68682e-05
4 *150:C1 *157:B 3.00381e-05
5 *177:A *157:B 9.71067e-05
*RES
1 *156:X *157:B 8.775 
*END

*D_NET *52 0.00371949
*CONN
*I *179:A I *D sky130_fd_sc_hd__clkbuf_16
*I *178:A I *D sky130_fd_sc_hd__clkbuf_16
*I *177:X O *D sky130_fd_sc_hd__clkbuf_16
*CAP
1 *179:A 0.000486959
2 *178:A 0.000382484
3 *177:X 0.000221107
4 *52:8 0.00109055
5 *178:A *148:B 0
6 *178:A *151:A 1.01661e-05
7 *178:A *161:A 8.24405e-05
8 *178:A *53:10 0
9 *178:A *53:23 0
10 *178:A *56:73 0.000101352
11 *178:A *83:10 0.00013521
12 *178:A *83:25 0.000158297
13 *179:A *144:A2 3.2071e-05
14 *179:A *154:S 0
15 *179:A *183:A 7.09921e-05
16 *179:A *184:A 0
17 *179:A *197:A 0.000100544
18 *179:A *205:A 6.91315e-05
19 *179:A *54:10 0
20 *179:A *54:14 0
21 *179:A *56:73 2.4997e-05
22 *52:8 *56:53 0.000180573
23 phy_data_out[8] *179:A 7.23533e-05
24 *147:C1 *179:A 0
25 *149:A2 *178:A 9.30717e-05
26 *149:C1 *178:A 0
27 *152:B *178:A 0.000185398
28 *153:C1 *178:A 9.71067e-05
29 *154:A0 *179:A 0
30 *177:A *179:A 0
31 *189:A *178:A 0
32 *41:24 *178:A 2.23407e-05
33 *41:35 *178:A 0.000102346
34 *45:12 *179:A 0
35 *47:17 *178:A 0
*RES
1 *177:X *52:8 6.465 
2 *52:8 *178:A 13.395 
3 *52:8 *179:A 12.63 
*END

*D_NET *53 0.00423216
*CONN
*I *170:CLK I *D sky130_fd_sc_hd__dfrtp_1
*I *168:CLK I *D sky130_fd_sc_hd__dfrtp_1
*I *165:CLK I *D sky130_fd_sc_hd__dfrtp_1
*I *169:CLK I *D sky130_fd_sc_hd__dfrtp_1
*I *178:X O *D sky130_fd_sc_hd__clkbuf_16
*CAP
1 *170:CLK 0.000185756
2 *168:CLK 0
3 *165:CLK 0.000488834
4 *169:CLK 0.000456659
5 *178:X 0.000195287
6 *53:27 0.000538377
7 *53:23 0.000434975
8 *53:10 0.000851623
9 *165:CLK *151:A 8.18626e-05
10 *165:CLK *160:A 8.05167e-05
11 *165:CLK *83:6 2.75229e-05
12 *169:CLK *151:B 0.000162224
13 *53:10 *199:A 0.000118401
14 *152:B *165:CLK 4.66108e-05
15 *153:B1 *170:CLK 9.23854e-05
16 *153:B1 *53:23 4.53323e-05
17 *153:B1 *53:27 4.7003e-05
18 *153:C1 *169:CLK 1.33293e-05
19 *165:D *165:CLK 0.000147841
20 *165:RESET_B *165:CLK 4.70393e-05
21 *168:D *53:23 8.90199e-05
22 *168:D *53:27 2.49909e-05
23 *168:RESET_B *165:CLK 3.51072e-05
24 *168:RESET_B *53:27 2.14655e-05
25 *178:A *53:10 0
26 *178:A *53:23 0
27 *41:35 *170:CLK 0
*RES
1 *178:X *53:10 6.3 
2 *53:10 *169:CLK 9.15 
3 *53:10 *53:23 2.91 
4 *53:23 *53:27 3.14 
5 *53:27 *165:CLK 11.02 
6 *53:27 *168:CLK 1.6 
7 *53:23 *170:CLK 6.39 
*END

*D_NET *54 0.00391028
*CONN
*I *172:CLK I *D sky130_fd_sc_hd__dfrtp_1
*I *166:CLK I *D sky130_fd_sc_hd__dfrtp_1
*I *167:CLK I *D sky130_fd_sc_hd__dfrtp_1
*I *171:CLK I *D sky130_fd_sc_hd__dfrtp_1
*I *179:X O *D sky130_fd_sc_hd__clkbuf_16
*CAP
1 *172:CLK 4.1705e-05
2 *166:CLK 3.95151e-05
3 *167:CLK 0
4 *171:CLK 4.44872e-05
5 *179:X 0.000312372
6 *54:22 0.000639171
7 *54:14 0.000748569
8 *54:10 0.000468447
9 *166:CLK *154:S 4.82863e-05
10 *171:CLK *142:B 0.000159964
11 *172:CLK *205:A 5.61425e-05
12 *54:10 *144:A1 6.07769e-05
13 *54:10 *144:B1 4.77757e-05
14 *54:10 *154:S 0.000166417
15 *54:14 *144:A1 3.69171e-05
16 *54:14 *154:S 0.000116728
17 *54:14 *184:A 5.42341e-06
18 *54:22 *154:S 5.46219e-05
19 phy_data_out[8] *172:CLK 8.41307e-05
20 *146:C1 *166:CLK 1.41165e-05
21 *147:C1 *54:22 0.000117101
22 *154:A0 *54:22 5.45311e-05
23 *155:B2 *54:22 0.000284551
24 *167:D *54:22 2.75229e-05
25 *172:D *54:10 9.30787e-05
26 *172:D *54:14 8.53113e-06
27 *179:A *54:10 0
28 *179:A *54:14 0
29 *193:A *171:CLK 0.000161623
30 *196:A *54:10 1.77747e-05
*RES
1 *179:X *54:10 8.595 
2 *54:10 *54:14 4.4 
3 *54:14 *54:22 11.28 
4 *54:22 *171:CLK 7.49 
5 *54:22 *167:CLK 1.6 
6 *54:14 *166:CLK 2.395 
7 *54:10 *172:CLK 4.755 
*END

*D_NET *55 0.00233714
*CONN
*I *154:S I *D sky130_fd_sc_hd__mux2_1
*I *187:X O *D sky130_fd_sc_hd__clkbuf_1
*CAP
1 *154:S 0.000739717
2 *187:X 0.000739717
3 *154:S *144:B1 7.52965e-05
4 *154:S *204:A 4.99619e-05