*SPEF "ieee 1481-1999"
*DESIGN "eth_phy_1g"
*DATE "20:26:00 Thursday February 12, 2026"
*VENDOR "The OpenROAD Project"
*PROGRAM "OpenROAD"
*VERSION "edf00dff99f6c40d67a30c0e22a8191c5d2ed9d6"
*DESIGN_FLOW "NAME_SCOPE LOCAL" "PIN_CAP NONE"
*DIVIDER /
*DELIMITER :
*BUS_DELIMITER []
*T_UNIT 1 NS
*C_UNIT 1 PF
*R_UNIT 1 OHM
*L_UNIT 1 HENRY

*NAME_MAP
*3 clk
*4 eth_data_in[0]
*5 eth_data_in[1]
*6 eth_data_in[2]
*7 eth_data_in[3]
*8 eth_data_in[4]
*9 eth_data_in[5]
*10 eth_data_in[6]
*11 eth_data_in[7]
*12 eth_valid_in
*13 phy_data_out[0]
*14 phy_data_out[1]
*15 phy_data_out[2]
*16 phy_data_out[3]
*17 phy_data_out[4]
*18 phy_data_out[5]
*19 phy_data_out[6]
*20 phy_data_out[7]
*21 phy_data_out[8]
*22 phy_data_out[9]
*23 phy_valid_out
*24 rst
*25 _00_
*26 _01_
*27 _02_
*28 _03_
*29 _04_
*30 _05_
*31 _06_
*32 _07_
*33 _08_
*34 _09_
*35 _10_
*36 _11_
*37 _12_
*38 _13_
*39 _14_
*40 _15_
*41 _16_
*42 _17_
*43 _18_
*44 _19_
*45 _20_
*46 _21_
*47 _22_
*48 _23_
*49 _24_
*50 _25_
*51 _26_
*52 clknet_0_clk
*53 clknet_1_0__leaf_clk
*54 clknet_1_1__leaf_clk
*55 net1
*56 net10
*57 net11
*58 net12
*59 net13
*60 net14
*61 net15
*62 net16
*63 net17
*64 net18
*65 net19
*66 net2
*67 net20
*68 net21
*69 net22
*70 net23
*71 net24
*72 net25
*73 net26
*74 net27
*75 net28
*76 net3
*77 net4
*78 net5
*79 net6
*80 net7
*81 net8
*82 net9
*83 u_pcs\.rd_pos
*84 FILLER_0_15
*85 FILLER_0_21
*86 FILLER_0_3
*87 FILLER_1_3
*88 FILLER_1_42
*89 FILLER_1_55
*90 FILLER_2_55
*91 FILLER_2_7
*92 FILLER_3_3
*93 FILLER_3_9
*94 FILLER_4_15
*95 FILLER_4_19
*96 FILLER_4_3
*97 FILLER_4_40
*98 FILLER_5_16
*99 FILLER_5_43
*100 FILLER_6_38
*101 FILLER_6_7
*102 FILLER_7_3
*103 FILLER_8_3
*104 FILLER_8_50
*105 FILLER_9_3
*106 PHY_EDGE_ROW_0_Left_10
*107 PHY_EDGE_ROW_0_Right_0
*108 PHY_EDGE_ROW_1_Left_11
*109 PHY_EDGE_ROW_1_Right_1
*110 PHY_EDGE_ROW_2_Left_12
*111 PHY_EDGE_ROW_2_Right_2
*112 PHY_EDGE_ROW_3_Left_13
*113 PHY_EDGE_ROW_3_Right_3
*114 PHY_EDGE_ROW_4_Left_14
*115 PHY_EDGE_ROW_4_Right_4
*116 PHY_EDGE_ROW_5_Left_15
*117 PHY_EDGE_ROW_5_Right_5
*118 PHY_EDGE_ROW_6_Left_16
*119 PHY_EDGE_ROW_6_Right_6
*120 PHY_EDGE_ROW_7_Left_17
*121 PHY_EDGE_ROW_7_Right_7
*122 PHY_EDGE_ROW_8_Left_18
*123 PHY_EDGE_ROW_8_Right_8
*124 PHY_EDGE_ROW_9_Left_19
*125 PHY_EDGE_ROW_9_Right_9
*126 TAP_TAPCELL_ROW_0_20
*127 TAP_TAPCELL_ROW_0_21
*128 TAP_TAPCELL_ROW_1_22
*129 TAP_TAPCELL_ROW_2_23
*130 TAP_TAPCELL_ROW_3_24
*131 TAP_TAPCELL_ROW_4_25
*132 TAP_TAPCELL_ROW_5_26
*133 TAP_TAPCELL_ROW_6_27
*134 TAP_TAPCELL_ROW_7_28
*135 TAP_TAPCELL_ROW_8_29
*136 TAP_TAPCELL_ROW_9_30
*137 TAP_TAPCELL_ROW_9_31
*138 _27_
*139 _28_
*140 _29_
*141 _30_
*142 _31_
*143 _32_
*144 _33_
*145 _34_
*146 _35_
*147 _36_
*148 _37_
*149 _38_
*150 _39_
*151 _40_
*152 _41_
*153 _42_
*154 _43_
*155 _44_
*156 _45_
*157 _46_
*158 _47_
*159 _48_
*160 _49_
*161 _50_
*162 _51_
*163 _52_
*164 _53_
*165 _54_
*166 _55_
*167 _56_
*168 _57_
*169 _58_
*170 _59_
*171 _60_
*172 _61_
*173 _62_
*174 _63_
*175 _64_
*176 _65_
*177 clkbuf_0_clk
*178 clkbuf_1_0__f_clk
*179 clkbuf_1_1__f_clk
*180 hold1
*181 hold2
*182 hold3
*183 hold4
*184 hold5
*185 hold6
*186 hold7
*187 input1
*188 input10
*189 input2
*190 input3
*191 input4
*192 input5
*193 input6
*194 input7
*195 input8
*196 input9
*197 output11
*198 output12
*199 output13
*200 output14
*201 output15
*202 output16
*203 output17
*204 output18
*205 output19
*206 output20
*207 output21

*PORTS
clk I
eth_data_in[0] I
eth_data_in[1] I
eth_data_in[2] I
eth_data_in[3] I
eth_data_in[4] I
eth_data_in[5] I
eth_data_in[6] I
eth_data_in[7] I
eth_valid_in I
phy_data_out[0] O
phy_data_out[1] O
phy_data_out[2] O
phy_data_out[3] O
phy_data_out[4] O
phy_data_out[5] O
phy_data_out[6] O
phy_data_out[7] O
phy_data_out[8] O
phy_data_out[9] O
phy_valid_out O
rst I

*D_NET *3 0.00245588
*CONN
*P clk I
*I *177:A I *D sky130_fd_sc_hd__clkbuf_16
*CAP
1 clk 0.0010132
2 *177:A 0
3 *3:11 0.0010132
4 *3:11 phy_data_out[0] 0
5 *3:11 phy_data_out[3] 1.5289e-05
6 *3:11 *7:15 6.23473e-05
7 *3:11 *16:14 1.59585e-05
8 *3:11 *45:22 0.000219576
9 *3:11 *51:10 0.000116314
10 *3:11 *52:21 0
11 *3:11 *56:73 0
*RES
1 clk *3:11 31.0784 
2 *3:11 *177:A 23 
*END

*D_NET *4 0.00167219
*CONN
*P eth_data_in[0] I
*I *187:A I *D sky130_fd_sc_hd__clkbuf_1
*CAP
1 eth_data_in[0] 0.000671126
2 *187:A 0
3 *4:11 0.000671126
4 *4:11 phy_data_out[7] 0.000143655
5 *4:11 *12:11 0
6 *4:11 *55:8 0.000100488
7 *4:11 *62:10 0
8 *4:11 *64:12 8.57986e-05
*RES
1 eth_data_in[0] *4:11 30.3907 
2 *4:11 *187:A 23 
*END

*D_NET *5 0.00225799
*CONN
*P eth_data_in[1] I
*I *189:A I *D sky130_fd_sc_hd__clkbuf_1
*CAP
1 eth_data_in[1] 0.000526955
2 *189:A 0
3 *5:9 0.000526955
4 *5:9 *173:A 0.000580752
5 *5:9 *52:12 0
6 *5:9 *59:10 0.000623325
*RES
1 eth_data_in[1] *5:9 30.515 
2 *5:9 *189:A 23 
*END

*D_NET *6 0.00131155
*CONN
*P eth_data_in[2] I
*I *190:A I *D sky130_fd_sc_hd__clkbuf_1
*CAP
1 eth_data_in[2] 0.00050023
2 *190:A 0
3 *6:11 0.00050023
4 *6:11 phy_data_out[5] 0
5 *6:11 *176:A 5.50106e-05
6 *6:11 *8:11 0.00021057
7 *6:11 *9:13 2.12147e-05
8 *6:11 *10:15 2.02872e-05
9 *6:11 *62:10 4.00259e-06
*RES
1 eth_data_in[2] *6:11 27.0557 
2 *6:11 *190:A 23 
*END

*D_NET *7 0.00134269
*CONN
*P eth_data_in[3] I
*I *191:A I *D sky130_fd_sc_hd__clkbuf_1
*CAP
1 eth_data_in[3] 0.000477867
2 *191:A 0
3 *7:15 0.000477867
4 *7:15 phy_data_out[0] 0.000100654
5 *7:15 *9:13 0.00010018
6 *7:15 *57:14 0.00012377
7 *3:11 *7:15 6.23473e-05
*RES
1 eth_data_in[3] *7:15 31.6751 
2 *7:15 *191:A 23 
*END

*D_NET *8 0.00328581
*CONN
*P eth_data_in[4] I
*I *192:A I *D sky130_fd_sc_hd__clkbuf_1
*CAP
1 eth_data_in[4] 0.00123626
2 *192:A 0
3 *8:11 0.00123626
4 *8:11 phy_data_out[5] 0
5 *8:11 *9:13 0
6 *8:11 *10:15 6.91028e-05
7 *8:11 *34:8 0.000142346
8 *8:11 *38:10 0.000110913
9 *8:11 *41:49 0
10 *8:11 *41:59 4.77911e-05
11 *8:11 *44:10 2.81216e-05
12 *8:11 *45:12 0
13 *8:11 *50:10 0
14 *8:11 *72:10 4.94766e-06
15 *8:11 *77:8 0.000113739
16 *8:11 *78:14 3.14377e-05
17 *8:11 *80:10 5.43331e-05
18 *6:11 *8:11 0.00021057
*RES
1 eth_data_in[4] *8:11 43.8675 
2 *8:11 *192:A 23 
*END

*D_NET *9 0.00323245
*CONN
*P eth_data_in[5] I
*I *193:A I *D sky130_fd_sc_hd__clkbuf_1
*CAP
1 eth_data_in[5] 0.000782787
2 *193:A 0
3 *9:13 0.000782787
4 *9:13 *143:B 1.75427e-05
5 *9:13 *10:15 6.91028e-05
6 *9:13 *11:11 0.000106141
7 *9:13 *54:28 0.000193379
8 *9:13 *57:14 9.84851e-05
9 *9:13 *67:29 6.16531e-05
10 *9:13 *76:8 5.35619e-05
11 *9:13 *78:14 0.00034306
12 *9:13 *79:10 0.00055764
13 *9:13 *80:10 4.49124e-05
14 *6:11 *9:13 2.12147e-05
15 *7:15 *9:13 0.00010018
16 *8:11 *9:13 0
*RES
1 eth_data_in[5] *9:13 37.4931 
2 *9:13 *193:A 23 
*END

*D_NET *10 0.00215451
*CONN
*P eth_data_in[6] I
*I *194:A I *D sky130_fd_sc_hd__clkbuf_1
*CAP
1 eth_data_in[6] 0.000607754
2 *194:A 0
3 *10:15 0.000607754
4 *10:15 *176:A 0.00014196
5 *10:15 *62:10 0.000130729
6 *10:15 *64:12 5.69109e-05
7 *10:15 *67:29 0.0002246
8 *10:15 *80:10 0.000226306
9 *6:11 *10:15 2.02872e-05
10 *8:11 *10:15 6.91028e-05
11 *9:13 *10:15 6.91028e-05
*RES
1 eth_data_in[6] *10:15 35.8831 
2 *10:15 *194:A 23 
*END

*D_NET *11 0.00611047
*CONN
*P eth_data_in[7] I
*I *195:A I *D sky130_fd_sc_hd__clkbuf_1
*CAP
1 eth_data_in[7] 0.00182647
2 *195:A 0
3 *11:11 0.00182647
4 *11:11 phy_data_out[0] 0
5 *11:11 phy_data_out[8] 1.58892e-05
6 *11:11 phy_data_out[9] 5.99691e-05
7 *11:11 *201:A 0.000207814
8 *11:11 *81:10 6.16635e-05
9 *11:11 *81:20 0.00200605
10 *11:11 *82:23 0
11 *9:13 *11:11 0.000106141
*RES
1 eth_data_in[7] *11:11 30.6655 
2 *11:11 *195:A 23 
*END

*D_NET *12 0.00231823
*CONN
*P eth_valid_in I
*I *196:A I *D sky130_fd_sc_hd__buf_1
*CAP
1 eth_valid_in 0.000999672
2 *196:A 0
3 *12:11 0.000999672
4 *12:11 *54:10 1.6458e-05
5 *12:11 *55:8 5.36442e-05
6 *12:11 *82:6 0.000185133
7 *12:11 *82:14 6.36464e-05
8 *4:11 *12:11 0
*RES
1 eth_valid_in *12:11 35.6314 
2 *12:11 *196:A 23 
*END

*D_NET *13 0.00073195
*CONN
*P phy_data_out[0] O
*I *197:X O *D sky130_fd_sc_hd__buf_2
*CAP
1 phy_data_out[0] 0.000286543
2 *197:X 0.000286543
3 phy_data_out[0] phy_data_out[9] 5.82094e-05
4 phy_data_out[0] *79:10 0
5 *3:11 phy_data_out[0] 0
6 *7:15 phy_data_out[0] 0.000100654
7 *11:11 phy_data_out[0] 0
*RES
1 *197:X phy_data_out[0] 48.7952 
*END

*D_NET *14 0.00178009
*CONN
*P phy_data_out[1] O
*I *198:X O *D sky130_fd_sc_hd__buf_2
*CAP
1 phy_data_out[1] 0.000836432
2 *198:X 0.000836432
3 phy_data_out[1] phy_data_out[2] 0.000107226
4 phy_data_out[1] phy_data_out[6] 0
*RES
1 *198:X phy_data_out[1] 48.4528 
*END

*D_NET *15 0.00163749
*CONN
*P phy_data_out[2] O
*I *199:X O *D sky130_fd_sc_hd__buf_2
*CAP
1 phy_data_out[2] 0.000264422
2 *199:X 0.000203598
3 *15:10 0.00046802
4 phy_data_out[2] phy_data_out[6] 0.000115287
5 *15:10 *30:10 0.000337049
6 *15:10 *41:14 0
7 *15:10 *58:8 0.000141888
8 *15:10 *63:12 0
9 phy_data_out[1] phy_data_out[2] 0.000107226
*RES
1 *199:X *15:10 43.1682 
2 *15:10 phy_data_out[2] 9.1872 
*END

*D_NET *16 0.000676914
*CONN
*P phy_data_out[3] O
*I *200:X O *D sky130_fd_sc_hd__buf_2
*CAP
1 phy_data_out[3] 8.68308e-05
2 *200:X 0.000236002
3 *16:14 0.000322833
4 *3:11 phy_data_out[3] 1.5289e-05
5 *3:11 *16:14 1.59585e-05
*RES
1 *200:X *16:14 49.9 
2 *16:14 phy_data_out[3] 0.382667 
*END

*D_NET *17 0.00103315
*CONN
*P phy_data_out[4] O
*I *201:X O *D sky130_fd_sc_hd__buf_2
*CAP
1 phy_data_out[4] 0.000417563
2 *201:X 0.000417563
3 phy_data_out[4] phy_data_out[8] 0.000132544
4 phy_data_out[4] *201:A 6.54744e-05
*RES
1 *201:X phy_data_out[4] 49.0027 
*END

*D_NET *18 0.00122857
*CONN
*P phy_data_out[5] O
*I *202:X O *D sky130_fd_sc_hd__buf_2
*CAP
1 phy_data_out[5] 0.0005695
2 *202:X 0.0005695
3 phy_data_out[5] phy_data_out[7] 0
4 phy_data_out[5] *62:10 5.67058e-05
5 phy_data_out[5] *64:12 3.28642e-05
6 *6:11 phy_data_out[5] 0
7 *8:11 phy_data_out[5] 0
*RES
1 *202:X phy_data_out[5] 49.6829 
*END

*D_NET *19 0.00191339
*CONN
*P phy_data_out[6] O
*I *203:X O *D sky130_fd_sc_hd__buf_2
*CAP
1 phy_data_out[6] 0.000661688
2 *203:X 0.00015489
3 *19:12 0.000816578
4 phy_data_out[6] *180:A 0.000109517
5 *19:12 *203:A 5.54294e-05
6 *19:12 *41:14 0
7 phy_data_out[1] phy_data_out[6] 0
8 phy_data_out[2] phy_data_out[6] 0.000115287
*RES
1 *203:X *19:12 48.3511 
2 *19:12 phy_data_out[6] 2.04587 
*END

*D_NET *20 0.00126827
*CONN
*P phy_data_out[7] O
*I *204:X O *D sky130_fd_sc_hd__buf_2
*CAP
1 phy_data_out[7] 0.000562307
2 *204:X 0.000562307
3 phy_data_out[5] phy_data_out[7] 0
4 *4:11 phy_data_out[7] 0.000143655
*RES
1 *204:X phy_data_out[7] 49.6829 
*END

*D_NET *21 0.0040537
*CONN
*P phy_data_out[8] O
*I *205:X O *D sky130_fd_sc_hd__buf_2
*CAP
1 phy_data_out[8] 0.00124204
2 *205:X 0.000246711
3 *21:10 0.00148875
4 phy_data_out[8] phy_valid_out 9.24141e-05
5 phy_data_out[8] *146:A2 3.08428e-05
6 phy_data_out[8] *172:CLK 9.77405e-05
7 phy_data_out[8] *174:A 2.31116e-05
8 phy_data_out[8] *180:A 0
9 phy_data_out[8] *185:A 9.03784e-05
10 phy_data_out[8] *65:6 1.59094e-05
11 phy_data_out[8] *65:20 0.000266786
12 phy_data_out[8] *81:20 2.28839e-05
13 *21:10 *144:A3 2.02872e-05
14 *21:10 *52:21 8.62783e-05
15 *21:10 *73:8 0.000181131
16 phy_data_out[4] phy_data_out[8] 0.000132544
17 *11:11 phy_data_out[8] 1.58892e-05
*RES
1 *205:X *21:10 41.7286 
2 *21:10 phy_data_out[8] 49.8865 
*END

*D_NET *22 0.000851271
*CONN
*P phy_data_out[9] O
*I *206:X O *D sky130_fd_sc_hd__buf_2
*CAP
1 phy_data_out[9] 0.000327217
2 *206:X 0.000327217
3 phy_data_out[9] *206:A 6.03452e-05
4 phy_data_out[9] *67:29 1.83142e-05
5 phy_data_out[0] phy_data_out[9] 5.82094e-05
6 *11:11 phy_data_out[9] 5.99691e-05
*RES
1 *206:X phy_data_out[9] 49.8901 
*END

*D_NET *23 0.00255327
*CONN
*P phy_valid_out O
*I *207:X O *D sky130_fd_sc_hd__buf_2
*CAP
1 phy_valid_out 0.000242707
2 *207:X 0.000440806
3 *23:8 0.000683513
4 phy_valid_out *180:A 9.70072e-05
5 *23:8 *146:A2 0
6 *23:8 *180:A 5.83565e-05
7 *23:8 *201:A 0
8 *23:8 *30:10 0.000193727
9 *23:8 *32:8 0.000539006
10 *23:8 *41:14 0
11 *23:8 *56:22 0.000114083
12 *23:8 *63:27 7.01633e-05
13 *23:8 *68:8 2.14833e-05
14 phy_data_out[8] phy_valid_out 9.24141e-05
*RES
1 *207:X *23:8 47.4768 
2 *23:8 phy_valid_out 9.01547 
*END

*D_NET *24 0.00106202
*CONN
*P rst I
*I *180:A I *D sky130_fd_sc_hd__dlygate4sd3_1
*CAP
1 rst 0.00039857
2 *180:A 0.00039857
3 *180:A *146:A2 0
4 *180:A *41:14 0
5 phy_data_out[6] *180:A 0.000109517
6 phy_data_out[8] *180:A 0
7 phy_valid_out *180:A 9.70072e-05
8 *23:8 *180:A 5.83565e-05
*RES
1 rst *180:A 48.9168 
*END

*D_NET *25 0.00040104
*CONN
*I *165:RESET_B I *D sky130_fd_sc_hd__dfrtp_1
*I *141:Y O *D sky130_fd_sc_hd__inv_2
*CAP
1 *165:RESET_B 5.2782e-05
2 *141:Y 6.55153e-05
3 *25:8 0.000118297
4 *165:RESET_B *165:CLK 5.03619e-05
5 *25:8 *36:10 0
6 *25:8 *56:75 0.000114083
*RES
1 *141:Y *25:8 39.5536 
2 *25:8 *165:RESET_B 16.0254 
*END

*D_NET *26 0.00240723
*CONN
*I *166:RESET_B I *D sky130_fd_sc_hd__dfrtp_1
*I *158:Y O *D sky130_fd_sc_hd__inv_2
*CAP
1 *166:RESET_B 0.000671827
2 *158:Y 9.14468e-05
3 *26:8 0.000763274
4 *166:RESET_B *32:8 1.13579e-05
5 *166:RESET_B *56:22 6.02007e-05
6 *166:RESET_B *68:8 0.000802949
7 *26:8 *158:A 6.17437e-06
*RES
1 *158:Y *26:8 39.0979 
2 *26:8 *166:RESET_B 29.8004 
*END

*D_NET *27 0.000400762
*CONN
*I *167:RESET_B I *D sky130_fd_sc_hd__dfrtp_1
*I *159:Y O *D sky130_fd_sc_hd__inv_2
*CAP
1 *167:RESET_B 0
2 *159:Y 0.000108607
3 *27:10 0.000108607
4 *27:10 *45:22 0.000114083
5 *27:10 *46:24 1.44546e-05
6 *27:10 *57:14 5.50106e-05
*RES
1 *159:Y *27:10 40.175 
2 *27:10 *167:RESET_B 15 
*END

*D_NET *28 0.000840364
*CONN
*I *168:RESET_B I *D sky130_fd_sc_hd__dfrtp_1
*I *160:Y O *D sky130_fd_sc_hd__inv_2
*CAP
1 *168:RESET_B 0.000360784
2 *160:Y 0.000360784
3 *168:RESET_B *165:CLK 3.66555e-05
4 *168:RESET_B *168:D 5.3304e-05
5 *168:RESET_B *45:40 6.86004e-06
6 *168:RESET_B *53:27 2.19764e-05
*RES
1 *160:Y *168:RESET_B 28.4789 
*END

*D_NET *29 0.000792109
*CONN
*I *169:RESET_B I *D sky130_fd_sc_hd__dfrtp_1
*I *161:Y O *D sky130_fd_sc_hd__inv_2
*CAP
1 *169:RESET_B 0.000123865
2 *161:Y 0.000267118
3 *29:10 0.000390983
4 *29:10 *161:A 0
5 *29:10 *36:10 1.01436e-05
6 *29:10 *56:75 0
*RES
1 *161:Y *29:10 42.1843 
2 *29:10 *169:RESET_B 16.9782 
*END

*D_NET *30 0.00188552
*CONN
*I *170:RESET_B I *D sky130_fd_sc_hd__dfrtp_1
*I *162:Y O *D sky130_fd_sc_hd__inv_2
*CAP
1 *170:RESET_B 6.10211e-05
2 *162:Y 0.000338469
3 *30:10 0.00039949
4 *170:RESET_B *56:14 0.000176205
5 *170:RESET_B *63:12 3.84966e-05
6 *30:10 *162:A 9.84761e-05
7 *30:10 *41:14 0
8 *30:10 *56:22 0.000128155
9 *30:10 *63:27 0.000114431
10 *15:10 *30:10 0.000337049
11 *23:8 *30:10 0.000193727
*RES
1 *162:Y *30:10 47.3421 
2 *30:10 *170:RESET_B 16.9782 
*END

*D_NET *31 0.000891185
*CONN
*I *171:RESET_B I *D sky130_fd_sc_hd__dfrtp_1
*I *163:Y O *D sky130_fd_sc_hd__inv_2
*CAP
1 *171:RESET_B 0
2 *163:Y 0.000161903
3 *31:8 0.000161903
4 *31:8 *41:49 0.000403127
5 *31:8 *50:10 9.28842e-05
6 *31:8 *77:8 7.13673e-05
*RES
1 *163:Y *31:8 43.4271 
2 *31:8 *171:RESET_B 15 
*END

*D_NET *32 0.00246346
*CONN
*I *172:RESET_B I *D sky130_fd_sc_hd__dfrtp_1
*I *164:Y O *D sky130_fd_sc_hd__inv_2
*CAP
1 *172:RESET_B 0.00017242
2 *164:Y 0.000418339
3 *32:8 0.000590758
4 *172:RESET_B *65:6 0.000176607
5 *32:8 *201:A 0
6 *32:8 *68:8 0.000554971
7 *166:RESET_B *32:8 1.13579e-05
8 *23:8 *32:8 0.000539006
*RES
1 *164:Y *32:8 49.4136 
2 *32:8 *172:RESET_B 18.4075 
*END

*D_NET *33 0.00174646
*CONN
*I *165:D I *D sky130_fd_sc_hd__dfrtp_1
*I *157:X O *D sky130_fd_sc_hd__or2_1
*CAP
1 *165:D 0.00029986
2 *157:X 0.000224403
3 *33:8 0.000524264
4 *165:D *165:CLK 0.000160715
5 *33:8 *36:10 0.000219882
6 *33:8 *41:49 0.000162179
7 *33:8 *45:22 0.000127615
8 *33:8 *45:28 2.7538e-05
9 *33:8 *56:73 0
*RES
1 *157:X *33:8 43.7793 
2 *33:8 *165:D 42.93 
*END

*D_NET *34 0.00102194
*CONN
*I *167:D I *D sky130_fd_sc_hd__dfrtp_1
*I *155:X O *D sky130_fd_sc_hd__a22o_1
*CAP
1 *167:D 3.16782e-05
2 *155:X 0.000166731
3 *34:8 0.00019841
4 *167:D *54:22 2.93845e-05
5 *34:8 *38:10 0.000113153
6 *34:8 *78:14 0.000340241
7 *8:11 *34:8 0.000142346
*RES
1 *155:X *34:8 43.4271 
2 *34:8 *167:D 38.6214 
*END

*D_NET *35 0.000942325
*CONN
*I *168:D I *D sky130_fd_sc_hd__dfrtp_1
*I *153:X O *D sky130_fd_sc_hd__a211o_1
*CAP
1 *168:D 2.77218e-05
2 *153:X 0.00019568
3 *35:10 0.000223402
4 *168:D *53:27 2.64616e-05
5 *35:10 *41:14 0.000143543
6 *35:10 *41:24 5.56279e-05
7 *35:10 *45:46 0.000109352
8 *35:10 *53:23 0.000107232
9 *168:RESET_B *168:D 5.3304e-05
*RES
1 *153:X *35:10 41.6043 
2 *35:10 *168:D 38.6214 
*END

*D_NET *36 0.000934459
*CONN
*I *169:D I *D sky130_fd_sc_hd__dfrtp_1
*I *150:X O *D sky130_fd_sc_hd__a211o_1
*CAP
1 *169:D 0
2 *150:X 0.000318558
3 *36:10 0.000318558
4 *36:10 *150:A2 1.76557e-05
5 *36:10 *41:49 4.9662e-05
6 *36:10 *56:73 0
7 *36:10 *56:75 0
8 *25:8 *36:10 0
9 *29:10 *36:10 1.01436e-05
10 *33:8 *36:10 0.000219882
*RES
1 *150:X *36:10 43.945 
2 *36:10 *169:D 38 
*END

*D_NET *37 0.000368392
*CONN
*I *170:D I *D sky130_fd_sc_hd__dfrtp_1
*I *149:Y O *D sky130_fd_sc_hd__a211oi_1
*CAP
1 *170:D 0.000112508
2 *149:Y 0.000112508
3 *170:D *45:40 0.000143375
*RES
1 *149:Y *170:D 48.6929 
*END

*D_NET *38 0.000942244
*CONN
*I *171:D I *D sky130_fd_sc_hd__dfrtp_1
*I *147:X O *D sky130_fd_sc_hd__a211o_1
*CAP
1 *171:D 0
2 *147:X 0.000301127
3 *38:10 0.000301127
4 *38:10 *144:A3 4.88888e-05
5 *38:10 *155:A2 6.70361e-05
6 *8:11 *38:10 0.000110913
7 *34:8 *38:10 0.000113153
*RES
1 *147:X *38:10 42.5571 
2 *38:10 *171:D 38 
*END

*D_NET *39 0.000890404
*CONN
*I *172:D I *D sky130_fd_sc_hd__dfrtp_1
*I *146:Y O *D sky130_fd_sc_hd__a211oi_1
*CAP
1 *172:D 0
2 *146:Y 0.000280917
3 *39:12 0.000280917
4 *39:12 *144:A2 5.3304e-05
5 *39:12 *144:A3 1.3867e-05
6 *39:12 *146:B1 2.94211e-05
7 *39:12 *154:S 0.000110913
8 *39:12 *54:10 0.000110922
9 *39:12 *54:14 1.01436e-05
*RES
1 *146:Y *39:12 42.5779 
2 *39:12 *172:D 38 
*END

*D_NET *40 0.00103391
*CONN
*I *146:A1 I *D sky130_fd_sc_hd__a211oi_1
*I *138:Y O *D sky130_fd_sc_hd__inv_2
*CAP
1 *146:A1 0.000365214
2 *138:Y 7.99831e-05
3 *40:8 0.000445197
4 *146:A1 *146:A2 9.84794e-05
5 *146:A1 *185:A 4.50413e-05
6 *40:8 *201:A 0
*RES
1 *138:Y *40:8 39.2014 
2 *40:8 *146:A1 42.9093 
*END

*D_NET *41 0.0108382
*CONN
*I *146:A2 I *D sky130_fd_sc_hd__a211oi_1
*I *153:A1 I *D sky130_fd_sc_hd__a211o_1
*I *149:A1 I *D sky130_fd_sc_hd__a211oi_1
*I *156:A I *D sky130_fd_sc_hd__and2_1
*I *150:A1 I *D sky130_fd_sc_hd__a211o_1
*I *147:A1 I *D sky130_fd_sc_hd__a211o_1
*I *155:A1 I *D sky130_fd_sc_hd__a22o_1
*I *152:A I *D sky130_fd_sc_hd__nor2_1
*I *139:Y O *D sky130_fd_sc_hd__inv_2
*CAP
1 *146:A2 0.000395765
2 *153:A1 1.49132e-05
3 *149:A1 1.81945e-05
4 *156:A 0
5 *150:A1 2.61121e-05
6 *147:A1 5.73132e-05
7 *155:A1 0
8 *152:A 0
9 *139:Y 0.00026621
10 *41:59 0.000266064
11 *41:49 0.000938583
12 *41:41 0.000758668
13 *41:39 0.000176493
14 *41:35 0.000226954
15 *41:24 0.000433434
16 *41:14 0.000986442
17 *41:8 0.00134969
18 *146:A2 *174:A 0
19 *146:A2 *185:A 9.84794e-05
20 *146:A2 *201:A 0.000530128
21 *146:A2 *56:53 2.70366e-05
22 *147:A1 *45:22 2.97009e-05
23 *149:A1 *150:C1 2.93431e-05
24 *149:A1 *45:28 2.31687e-05
25 *150:A1 *150:C1 0
26 *153:A1 *153:C1 7.86509e-06
27 *153:A1 *70:8 1.14154e-05
28 *41:8 *139:A 7.98581e-05
29 *41:14 *151:B 1.03955e-05
30 *41:14 *198:A 0.000228001
31 *41:14 *56:14 9.28945e-05
32 *41:14 *56:53 5.80963e-05
33 *41:14 *58:8 3.5664e-05
34 *41:14 *63:12 0.000327903
35 *41:14 *63:27 0
36 *41:14 *70:8 0.000172898
37 *41:24 *151:B 6.50899e-05
38 *41:24 *153:C1 0.000198304
39 *41:24 *49:8 8.85189e-05
40 *41:24 *52:12 2.3529e-05
41 *41:24 *83:45 0.000138727
42 *41:35 *149:C1 2.76611e-06
43 *41:35 *170:CLK 0
44 *41:35 *52:12 0.000108274
45 *41:35 *83:45 8.94487e-05
46 *41:39 *150:C1 5.5228e-05
47 *41:39 *45:28 4.5051e-05
48 *41:41 *150:B1 5.50106e-05
49 *41:41 *150:C1 0.000119049
50 *41:41 *156:B 5.3304e-05
51 *41:41 *45:28 0.00030894
52 *41:49 *150:A2 5.3304e-05
53 *41:49 *45:22 0.000359295
54 *41:49 *50:10 2.15784e-05
55 *41:59 *44:10 4.51887e-05
56 *41:59 *81:20 0.000338645
57 phy_data_out[8] *146:A2 3.08428e-05
58 *146:A1 *146:A2 9.84794e-05
59 *180:A *146:A2 0
60 *180:A *41:14 0
61 *8:11 *41:49 0
62 *8:11 *41:59 4.77911e-05
63 *15:10 *41:14 0
64 *19:12 *41:14 0
65 *23:8 *146:A2 0
66 *23:8 *41:14 0
67 *30:10 *41:14 0
68 *31:8 *41:49 0.000403127
69 *33:8 *41:49 0.000162179
70 *35:10 *41:14 0.000143543
71 *35:10 *41:24 5.56279e-05
72 *36:10 *41:49 4.9662e-05
*RES
1 *139:Y *41:8 41.48 
2 *41:8 *41:14 31.3436 
3 *41:14 *41:24 21.0279 
4 *41:24 *152:A 38 
5 *41:24 *41:35 18.3143 
6 *41:35 *41:39 1.595 
7 *41:39 *41:41 3.95643 
8 *41:41 *41:49 30.0696 
9 *41:49 *41:59 32.3303 
10 *41:59 *155:A1 23 
11 *41:49 *147:A1 39.0254 
12 *41:41 *150:A1 23.4971 
13 *41:39 *156:A 23 
14 *41:35 *149:A1 23.6214 
15 *41:14 *153:A1 23.4971 
16 *41:8 *146:A2 48.0464 
*END

*D_NET *42 0.0006871
*CONN
*I *149:A2 I *D sky130_fd_sc_hd__a211oi_1
*I *140:Y O *D sky130_fd_sc_hd__inv_2
*CAP
1 *149:A2 0
2 *140:Y 0.000256433
3 *42:10 0.000256433
4 *42:10 *145:B 2.02872e-05
5 *42:10 *149:C1 0
6 *42:10 *157:A 4.37586e-06
7 *42:10 *52:12 0.000110913
8 *42:10 *75:8 1.21972e-05
9 *42:10 *83:25 2.64616e-05
*RES
1 *140:Y *42:10 41.6043 
2 *42:10 *149:A2 38 
*END

*D_NET *43 0.00386191
*CONN
*I *144:A3 I *D sky130_fd_sc_hd__o31a_1
*I *143:C I *D sky130_fd_sc_hd__nor3_1
*I *142:X O *D sky130_fd_sc_hd__or4_1
*CAP
1 *144:A3 0.000698777
2 *143:C 0
3 *142:X 0
4 *43:10 4.91129e-05
5 *43:4 0.00074789
6 *144:A3 *144:A2 0.00014276
7 *144:A3 *146:B1 0.000183172
8 *144:A3 *155:A2 0.000140259
9 *144:A3 *45:12 0.000139107
10 *144:A3 *46:24 9.84794e-05
11 *144:A3 *73:8 0.000205834
12 *144:A3 *76:25 0.000878152
13 *144:A3 *77:37 0.000140313
14 *144:A3 *81:20 6.99492e-05
15 *43:10 *143:B 0.000140949
16 *43:10 *67:29 0.00014411
17 *21:10 *144:A3 2.02872e-05
18 *38:10 *144:A3 4.88888e-05
19 *39:12 *144:A3 1.3867e-05
*RES
1 *142:X *43:4 23 
2 *43:4 *43:10 31.9057 
3 *43:10 *143:C 23 
4 *43:4 *144:A3 43.5486 
*END

*D_NET *44 0.00124737
*CONN
*I *155:B1 I *D sky130_fd_sc_hd__a22o_1
*I *143:Y O *D sky130_fd_sc_hd__nor3_1
*CAP
1 *155:B1 0
2 *143:Y 0.000480578
3 *44:10 0.000480578
4 *44:10 *143:A 9.5335e-05
5 *44:10 *67:8 1.24524e-05
6 *44:10 *72:10 0.00010512
7 *8:11 *44:10 2.81216e-05
8 *41:59 *44:10 4.51887e-05
*RES
1 *143:Y *44:10 44.4629 
2 *44:10 *155:B1 38 
*END

*D_NET *45 0.00754824
*CONN
*I *146:B1 I *D sky130_fd_sc_hd__a211oi_1
*I *147:B1 I *D sky130_fd_sc_hd__a211o_1
*I *150:B1 I *D sky130_fd_sc_hd__a211o_1
*I *149:B1 I *D sky130_fd_sc_hd__a211oi_1
*I *153:B1 I *D sky130_fd_sc_hd__a211o_1
*I *144:X O *D sky130_fd_sc_hd__o31a_1
*CAP
1 *146:B1 0.000257873
2 *147:B1 0
3 *150:B1 2.95011e-05
4 *149:B1 0
5 *153:B1 0
6 *144:X 0
7 *45:46 0.000228896
8 *45:40 0.000677599
9 *45:28 0.00079257
10 *45:22 0.000950091
11 *45:12 0.00114322
12 *45:4 0.000824366
13 *45:12 *46:24 2.75733e-06
14 *45:12 *52:21 0
15 *45:12 *76:25 0.000398503
16 *45:22 *46:24 0.000101713
17 *45:28 *150:C1 1.08287e-05
18 *45:28 *56:73 0
19 *45:40 *150:C1 3.52233e-06
20 *45:40 *170:CLK 8.4047e-05
21 *45:40 *53:27 5.11621e-05
22 *45:46 *170:CLK 2.24688e-05
23 *45:46 *53:23 4.78647e-05
24 *144:A3 *146:B1 0.000183172
25 *144:A3 *45:12 0.000139107
26 *147:A1 *45:22 2.97009e-05
27 *149:A1 *45:28 2.31687e-05
28 *168:RESET_B *45:40 6.86004e-06
29 *170:D *45:40 0.000143375
30 *3:11 *45:22 0.000219576
31 *8:11 *45:12 0
32 *27:10 *45:22 0.000114083
33 *33:8 *45:22 0.000127615
34 *33:8 *45:28 2.7538e-05
35 *35:10 *45:46 0.000109352
36 *39:12 *146:B1 2.94211e-05
37 *41:39 *45:28 4.5051e-05
38 *41:41 *150:B1 5.50106e-05
39 *41:41 *45:28 0.00030894
40 *41:49 *45:22 0.000359295
*RES
1 *144:X *45:4 23 
2 *45:4 *45:12 23.99 
3 *45:12 *45:22 15.4114 
4 *45:22 *45:28 21.235 
5 *45:28 *45:40 36.2764 
6 *45:40 *45:46 33.6664 
7 *45:46 *153:B1 23 
8 *45:28 *149:B1 23 
9 *45:22 *150:B1 38.6214 
10 *45:12 *147:B1 38 
11 *45:4 *146:B1 27.4329 
*END

*D_NET *46 0.0053116
*CONN
*I *146:C1 I *D sky130_fd_sc_hd__a211oi_1
*I *154:A1 I *D sky130_fd_sc_hd__mux2_1
*I *147:C1 I *D sky130_fd_sc_hd__a211o_1
*I *145:X O *D sky130_fd_sc_hd__and2_1
*CAP
1 *146:C1 0
2 *154:A1 0
3 *147:C1 0
4 *145:X 0.000180635
5 *46:42 0.000517005
6 *46:24 0.000614201
7 *46:14 0.000776528
8 *46:12 0.000679332
9 *46:10 0.000180635
10 *46:10 *47:17 0
11 *46:10 *47:49 0.000443141
12 *46:10 *75:8 0.000189669
13 *46:10 *82:27 0
14 *46:10 *82:37 0.000222123
15 *46:14 *154:S 2.02872e-05
16 *46:14 *47:49 0.000188927
17 *46:24 *183:A 7.20415e-05
18 *46:24 *47:49 5.79559e-05
19 *46:24 *52:21 0
20 *46:24 *54:22 0.000124448
21 *46:24 *57:14 5.91383e-05
22 *46:24 *65:20 6.95896e-05
23 *46:24 *73:8 9.84794e-05
24 *46:42 *154:S 6.17437e-06
25 *46:42 *166:CLK 1.46286e-05
26 *46:42 *166:D 9.93575e-05
27 *46:42 *82:14 2.75733e-06
28 *46:42 *82:23 0.000442828
29 *46:42 *82:27 3.43144e-05
30 *144:A3 *46:24 9.84794e-05
31 *27:10 *46:24 1.44546e-05
32 *45:12 *46:24 2.75733e-06
33 *45:22 *46:24 0.000101713
*RES
1 *145:X *46:10 44.4214 
2 *46:10 *46:12 15 
3 *46:12 *46:14 2.52714 
4 *46:14 *46:24 42.0143 
5 *46:24 *147:C1 23 
6 *46:14 *154:A1 23 
7 *46:12 *46:42 39.4871 
8 *46:42 *146:C1 23 
*END

*D_NET *47 0.00434993
*CONN
*I *154:A0 I *D sky130_fd_sc_hd__mux2_1
*I *150:C1 I *D sky130_fd_sc_hd__a211o_1
*I *149:C1 I *D sky130_fd_sc_hd__a211oi_1
*I *157:A I *D sky130_fd_sc_hd__or2_1
*I *148:X O *D sky130_fd_sc_hd__and2b_1
*CAP
1 *154:A0 0
2 *150:C1 0.000368665
3 *149:C1 4.69141e-05
4 *157:A 0.00050494
5 *148:X 0
6 *47:49 0.000380812
7 *47:17 0.000589295
8 *47:4 0.00105947
9 *149:C1 *52:12 0
10 *150:C1 *156:B 2.64616e-05
11 *150:C1 *51:10 3.22879e-05
12 *157:A *75:8 0.000166008
13 *47:17 *52:12 0
14 *47:17 *82:47 8.50457e-05
15 *47:49 *154:S 0.000100061
16 *47:49 *52:21 0
17 *47:49 *54:22 5.91781e-05
18 *47:49 *75:8 1.56542e-05
19 *149:A1 *150:C1 2.93431e-05
20 *150:A1 *150:C1 0
21 *41:35 *149:C1 2.76611e-06
22 *41:39 *150:C1 5.5228e-05
23 *41:41 *150:C1 0.000119049
24 *42:10 *149:C1 0
25 *42:10 *157:A 4.37586e-06
26 *45:28 *150:C1 1.08287e-05
27 *45:40 *150:C1 3.52233e-06
28 *46:10 *47:17 0
29 *46:10 *47:49 0.000443141
30 *46:14 *47:49 0.000188927
31 *46:24 *47:49 5.79559e-05
*RES
1 *148:X *47:4 23 
2 *47:4 *157:A 30.0636 
3 *47:4 *47:17 17.9621 
4 *47:17 *149:C1 38.8493 
5 *47:17 *150:C1 43.9036 
6 *47:4 *47:49 38.9486 
7 *47:49 *154:A0 23 
*END

*D_NET *48 0.000756778
*CONN
*I *152:B I *D sky130_fd_sc_hd__nor2_1
*I *151:X O *D sky130_fd_sc_hd__xor2_1
*CAP
1 *152:B 2.32701e-05
2 *151:X 6.7796e-05
3 *48:8 9.10661e-05
4 *152:B *160:A 5.3304e-05
5 *152:B *165:CLK 5.3304e-05
6 *48:8 *161:A 3.92407e-05
7 *48:8 *52:12 0.000222104
8 *48:8 *56:73 3.70187e-05
9 *48:8 *56:75 0.000169674
*RES
1 *151:X *48:8 40.9621 
2 *48:8 *152:B 38.6214 
*END

*D_NET *49 0.000786791
*CONN
*I *153:C1 I *D sky130_fd_sc_hd__a211o_1
*I *152:Y O *D sky130_fd_sc_hd__nor2_1
*CAP
1 *153:C1 8.08958e-05
2 *152:Y 4.10473e-05
3 *49:8 0.000121943
4 *153:C1 *151:B 0.000106318
5 *153:C1 *169:CLK 1.32939e-05
6 *49:8 *52:12 0.000116314
7 *49:8 *83:45 1.22906e-05
8 *153:A1 *153:C1 7.86509e-06
9 *41:24 *153:C1 0.000198304
10 *41:24 *49:8 8.85189e-05
*RES
1 *152:Y *49:8 39.5536 
2 *49:8 *153:C1 41.0243 
*END

*D_NET *50 0.00201943
*CONN
*I *155:B2 I *D sky130_fd_sc_hd__a22o_1
*I *154:X O *D sky130_fd_sc_hd__mux2_1
*CAP
1 *155:B2 0
2 *154:X 0.000666816
3 *50:10 0.000666816
4 *50:10 *54:22 0.000304128
5 *50:10 *72:10 0.000128486
6 *50:10 *77:8 0.000138718
7 *8:11 *50:10 0
8 *31:8 *50:10 9.28842e-05
9 *41:49 *50:10 2.15784e-05
*RES
1 *154:X *50:10 49.0614 
2 *50:10 *155:B2 38 
*END

*D_NET *51 0.000364426
*CONN
*I *157:B I *D sky130_fd_sc_hd__or2_1
*I *156:X O *D sky130_fd_sc_hd__and2_1
*CAP
1 *157:B 0
2 *156:X 9.00847e-05
3 *51:10 9.00847e-05
4 *51:10 *56:73 3.56537e-05
5 *150:C1 *51:10 3.22879e-05
6 *3:11 *51:10 0.000116314
*RES
1 *156:X *51:10 40.175 
2 *51:10 *157:B 38 
*END

*D_NET *52 0.00474479
*CONN
*I *179:A I *D sky130_fd_sc_hd__clkbuf_16
*I *178:A I *D sky130_fd_sc_hd__clkbuf_16
*I *177:X O *D sky130_fd_sc_hd__clkbuf_16
*CAP
1 *179:A 0
2 *178:A 0
3 *177:X 0.00027488
4 *52:21 0.000668307
5 *52:12 0.000561832
6 *52:8 0.00150502
7 *52:8 *56:53 0.000198087
8 *52:12 *161:A 8.80502e-05
9 *52:12 *53:10 0
10 *52:12 *53:23 0
11 *52:12 *56:73 0.000108192
12 *52:12 *82:47 0
13 *52:12 *83:10 0.000161121
14 *52:12 *83:25 0.000188926
15 *52:12 *83:45 1.02387e-05
16 *52:21 *154:S 0
17 *52:21 *183:A 7.45997e-05
18 *52:21 *54:10 0
19 *52:21 *54:14 0
20 *52:21 *56:73 2.70366e-05
21 *52:21 *57:14 0.000107651
22 *52:21 *65:20 7.18823e-05
23 *52:21 *67:51 0
24 *52:21 *76:25 3.15611e-05
25 *149:C1 *52:12 0
26 *3:11 *52:21 0
27 *5:9 *52:12 0
28 *21:10 *52:21 8.62783e-05
29 *41:24 *52:12 2.3529e-05
30 *41:35 *52:12 0.000108274
31 *42:10 *52:12 0.000110913
32 *45:12 *52:21 0
33 *46:24 *52:21 0
34 *47:17 *52:12 0
35 *47:49 *52:21 0
36 *48:8 *52:12 0.000222104
37 *49:8 *52:12 0.000116314
*RES
1 *177:X *52:8 41.9564 
2 *52:8 *52:12 28.5264 
3 *52:12 *178:A 23 
4 *52:8 *52:21 27.47 
5 *52:21 *179:A 23 
*END

*D_NET *53 0.00523668
*CONN
*I *170:CLK I *D sky130_fd_sc_hd__dfrtp_1
*I *168:CLK I *D sky130_fd_sc_hd__dfrtp_1
*I *165:CLK I *D sky130_fd_sc_hd__dfrtp_1
*I *169:CLK I *D sky130_fd_sc_hd__dfrtp_1
*I *178:X O *D sky130_fd_sc_hd__clkbuf_16
*CAP
1 *170:CLK 0.000255825
2 *168:CLK 0
3 *165:CLK 0.000607944
4 *169:CLK 0.000556027
5 *178:X 0.000242118
6 *53:27 0.000681499
7 *53:23 0.000618065
8 *53:10 0.00108683
9 *165:CLK *160:A 8.56254e-05
10 *165:CLK *83:6 2.93845e-05
11 *165:CLK *83:45 8.71791e-05
12 *169:CLK *151:B 0.000179565
13 *53:10 *59:10 0.000131072
14 *152:B *165:CLK 5.3304e-05
15 *153:C1 *169:CLK 1.32939e-05
16 *165:D *165:CLK 0.000160715
17 *165:RESET_B *165:CLK 5.03619e-05
18 *168:D *53:27 2.64616e-05
19 *168:RESET_B *165:CLK 3.66555e-05
20 *168:RESET_B *53:27 2.19764e-05
21 *35:10 *53:23 0.000107232
22 *41:35 *170:CLK 0
23 *45:40 *170:CLK 8.4047e-05
24 *45:40 *53:27 5.11621e-05
25 *45:46 *170:CLK 2.24688e-05
26 *45:46 *53:23 4.78647e-05
27 *52:12 *53:10 0
28 *52:12 *53:23 0
*RES
1 *178:X *53:10 41.7286 
2 *53:10 *169:CLK 45.6643 
3 *53:10 *53:23 4.01857 
4 *53:23 *53:27 16.5743 
5 *53:27 *165:CLK 36.0086 
6 *53:27 *168:CLK 23 
7 *53:23 *170:CLK 41.8529 
*END

*D_NET *54 0.004882
*CONN
*I *172:CLK I *D sky130_fd_sc_hd__dfrtp_1
*I *166:CLK I *D sky130_fd_sc_hd__dfrtp_1