* NGSPICE file created from counter32.ext - technology: sky130A

* Black-box entry subcircuit for sky130_fd_sc_hd__tapvpwrvgnd_1 abstract view
.subckt sky130_fd_sc_hd__tapvpwrvgnd_1 VGND VPWR
.ends

* Black-box entry subcircuit for sky130_fd_sc_hd__fill_1 abstract view
.subckt sky130_fd_sc_hd__fill_1 VGND VNB VPB VPWR
.ends

* Black-box entry subcircuit for sky130_ef_sc_hd__decap_12 abstract view
.subckt sky130_ef_sc_hd__decap_12 VPWR VGND VPB VNB
.ends

* Black-box entry subcircuit for sky130_fd_sc_hd__o31ai_1 abstract view
.subckt sky130_fd_sc_hd__o31ai_1 A1 A2 A3 B1 VGND VNB VPB VPWR Y
.ends

* Black-box entry subcircuit for sky130_fd_sc_hd__dfxtp_1 abstract view
.subckt sky130_fd_sc_hd__dfxtp_1 CLK D VGND VNB VPB VPWR Q
.ends

* Black-box entry subcircuit for sky130_fd_sc_hd__decap_6 abstract view
.subckt sky130_fd_sc_hd__decap_6 VGND VNB VPB VPWR
.ends

* Black-box entry subcircuit for sky130_fd_sc_hd__decap_8 abstract view
.subckt sky130_fd_sc_hd__decap_8 VGND VNB VPB VPWR
.ends

* Black-box entry subcircuit for sky130_fd_sc_hd__decap_3 abstract view
.subckt sky130_fd_sc_hd__decap_3 VGND VNB VPB VPWR
.ends

* Black-box entry subcircuit for sky130_fd_sc_hd__nand4_1 abstract view
.subckt sky130_fd_sc_hd__nand4_1 A B C D VGND VNB VPB VPWR Y
.ends

* Black-box entry subcircuit for sky130_fd_sc_hd__nor2_1 abstract view
.subckt sky130_fd_sc_hd__nor2_1 A B VGND VNB VPB VPWR Y
.ends

* Black-box entry subcircuit for sky130_fd_sc_hd__and2_1 abstract view
.subckt sky130_fd_sc_hd__and2_1 A B VGND VNB VPB VPWR X
.ends

* Black-box entry subcircuit for sky130_fd_sc_hd__decap_4 abstract view
.subckt sky130_fd_sc_hd__decap_4 VGND VNB VPB VPWR
.ends

* Black-box entry subcircuit for sky130_fd_sc_hd__fill_2 abstract view
.subckt sky130_fd_sc_hd__fill_2 VGND VNB VPB VPWR
.ends

* Black-box entry subcircuit for sky130_fd_sc_hd__buf_2 abstract view
.subckt sky130_fd_sc_hd__buf_2 A VGND VNB VPB VPWR X
.ends

* Black-box entry subcircuit for sky130_fd_sc_hd__a31o_1 abstract view
.subckt sky130_fd_sc_hd__a31o_1 A1 A2 A3 B1 VGND VNB VPB VPWR X
.ends

* Black-box entry subcircuit for sky130_fd_sc_hd__and4_1 abstract view
.subckt sky130_fd_sc_hd__and4_1 A B C D VGND VNB VPB VPWR X
.ends

* Black-box entry subcircuit for sky130_fd_sc_hd__nand4_4 abstract view
.subckt sky130_fd_sc_hd__nand4_4 A B C D VGND VNB VPB VPWR Y
.ends

* Black-box entry subcircuit for sky130_fd_sc_hd__dlygate4sd3_1 abstract view
.subckt sky130_fd_sc_hd__dlygate4sd3_1 A VGND VNB VPB VPWR X
.ends

* Black-box entry subcircuit for sky130_fd_sc_hd__dfxtp_2 abstract view
.subckt sky130_fd_sc_hd__dfxtp_2 CLK D VGND VNB VPB VPWR Q
.ends

* Black-box entry subcircuit for sky130_fd_sc_hd__o21bai_1 abstract view
.subckt sky130_fd_sc_hd__o21bai_1 A1 A2 B1_N VGND VNB VPB VPWR Y
.ends

* Black-box entry subcircuit for sky130_fd_sc_hd__and3_1 abstract view
.subckt sky130_fd_sc_hd__and3_1 A B C VGND VNB VPB VPWR X
.ends

* Black-box entry subcircuit for sky130_fd_sc_hd__a41oi_1 abstract view
.subckt sky130_fd_sc_hd__a41oi_1 A1 A2 A3 A4 B1 VGND VNB VPB VPWR Y
.ends

* Black-box entry subcircuit for sky130_fd_sc_hd__o21ai_1 abstract view
.subckt sky130_fd_sc_hd__o21ai_1 A1 A2 B1 VGND VNB VPB VPWR Y
.ends

* Black-box entry subcircuit for sky130_fd_sc_hd__nand4_2 abstract view
.subckt sky130_fd_sc_hd__nand4_2 A B C D VGND VNB VPB VPWR Y
.ends

* Black-box entry subcircuit for sky130_fd_sc_hd__inv_2 abstract view
.subckt sky130_fd_sc_hd__inv_2 A VGND VNB VPB VPWR Y
.ends

* Black-box entry subcircuit for sky130_fd_sc_hd__nand3_1 abstract view
.subckt sky130_fd_sc_hd__nand3_1 A B C VGND VNB VPB VPWR Y
.ends

* Black-box entry subcircuit for sky130_fd_sc_hd__clkbuf_4 abstract view
.subckt sky130_fd_sc_hd__clkbuf_4 A VGND VNB VPB VPWR X
.ends

* Black-box entry subcircuit for sky130_fd_sc_hd__o21a_1 abstract view
.subckt sky130_fd_sc_hd__o21a_1 A1 A2 B1 VGND VNB VPB VPWR X
.ends

* Black-box entry subcircuit for sky130_fd_sc_hd__clkinv_2 abstract view
.subckt sky130_fd_sc_hd__clkinv_2 A VGND VNB VPB VPWR Y
.ends

* Black-box entry subcircuit for sky130_fd_sc_hd__a21oi_1 abstract view
.subckt sky130_fd_sc_hd__a21oi_1 A1 A2 B1 VGND VNB VPB VPWR Y
.ends

* Black-box entry subcircuit for sky130_fd_sc_hd__o211a_1 abstract view
.subckt sky130_fd_sc_hd__o211a_1 A1 A2 B1 C1 VGND VNB VPB VPWR X
.ends

* Black-box entry subcircuit for sky130_fd_sc_hd__nand2_1 abstract view
.subckt sky130_fd_sc_hd__nand2_1 A B VGND VNB VPB VPWR Y
.ends

* Black-box entry subcircuit for sky130_fd_sc_hd__nor3_1 abstract view
.subckt sky130_fd_sc_hd__nor3_1 A B C VGND VNB VPB VPWR Y
.ends

* Black-box entry subcircuit for sky130_fd_sc_hd__a21o_1 abstract view
.subckt sky130_fd_sc_hd__a21o_1 A1 A2 B1 VGND VNB VPB VPWR X
.ends

* Black-box entry subcircuit for sky130_fd_sc_hd__clkbuf_16 abstract view
.subckt sky130_fd_sc_hd__clkbuf_16 A VGND VNB VPB VPWR X
.ends

* Black-box entry subcircuit for sky130_fd_sc_hd__nor4_1 abstract view
.subckt sky130_fd_sc_hd__nor4_1 A B C D VGND VNB VPB VPWR Y
.ends

* Black-box entry subcircuit for sky130_fd_sc_hd__and4_2 abstract view
.subckt sky130_fd_sc_hd__and4_2 A B C D VGND VNB VPB VPWR X
.ends

* Black-box entry subcircuit for sky130_fd_sc_hd__clkbuf_2 abstract view
.subckt sky130_fd_sc_hd__clkbuf_2 A VGND VNB VPB VPWR X
.ends

* Black-box entry subcircuit for sky130_fd_sc_hd__clkbuf_1 abstract view
.subckt sky130_fd_sc_hd__clkbuf_1 A VGND VNB VPB VPWR X
.ends

* Black-box entry subcircuit for sky130_fd_sc_hd__a31oi_1 abstract view
.subckt sky130_fd_sc_hd__a31oi_1 A1 A2 A3 B1 VGND VNB VPB VPWR Y
.ends

* Black-box entry subcircuit for sky130_fd_sc_hd__o21ba_1 abstract view
.subckt sky130_fd_sc_hd__o21ba_1 A1 A2 B1_N VGND VNB VPB VPWR X
.ends

* Black-box entry subcircuit for sky130_fd_sc_hd__o2111ai_2 abstract view
.subckt sky130_fd_sc_hd__o2111ai_2 A1 A2 B1 C1 D1 VGND VNB VPB VPWR Y
.ends

* Black-box entry subcircuit for sky130_fd_sc_hd__buf_1 abstract view
.subckt sky130_fd_sc_hd__buf_1 A VGND VNB VPB VPWR X
.ends

* Black-box entry subcircuit for sky130_fd_sc_hd__or2_1 abstract view
.subckt sky130_fd_sc_hd__or2_1 A B VGND VNB VPB VPWR X
.ends

* Black-box entry subcircuit for sky130_fd_sc_hd__o31a_1 abstract view
.subckt sky130_fd_sc_hd__o31a_1 A1 A2 A3 B1 VGND VNB VPB VPWR X
.ends

* Black-box entry subcircuit for sky130_fd_sc_hd__nor3b_1 abstract view
.subckt sky130_fd_sc_hd__nor3b_1 A B C_N VGND VNB VPB VPWR Y
.ends

* Black-box entry subcircuit for sky130_fd_sc_hd__nor2_2 abstract view
.subckt sky130_fd_sc_hd__nor2_2 A B VGND VNB VPB VPWR Y
.ends

* Black-box entry subcircuit for sky130_fd_sc_hd__nor2_4 abstract view
.subckt sky130_fd_sc_hd__nor2_4 A B VGND VNB VPB VPWR Y
.ends

* Black-box entry subcircuit for sky130_fd_sc_hd__nand2_2 abstract view
.subckt sky130_fd_sc_hd__nand2_2 A B VGND VNB VPB VPWR Y
.ends

* Black-box entry subcircuit for sky130_fd_sc_hd__nor4_2 abstract view
.subckt sky130_fd_sc_hd__nor4_2 A B C D VGND VNB VPB VPWR Y
.ends

* Black-box entry subcircuit for sky130_fd_sc_hd__nor4b_1 abstract view
.subckt sky130_fd_sc_hd__nor4b_1 A B C D_N VGND VNB VPB VPWR Y
.ends

.subckt counter32 VGND VPWR clk count[0] count[10] count[11] count[12] count[13] count[14]
+ count[15] count[16] count[17] count[18] count[19] count[1] count[20] count[21] count[22]
+ count[23] count[24] count[25] count[26] count[27] count[28] count[29] count[2] count[30]
+ count[31] count[3] count[4] count[5] count[6] count[7] count[8] count[9] en rst_n
XTAP_TAPCELL_ROW_24_139 VGND VPWR sky130_fd_sc_hd__tapvpwrvgnd_1
XFILLER_22_177 VGND VGND VPWR VPWR sky130_fd_sc_hd__fill_1
XFILLER_26_85 VPWR VGND VPWR VGND sky130_ef_sc_hd__decap_12
XFILLER_26_41 VPWR VGND VPWR VGND sky130_ef_sc_hd__decap_12
X_294_ _045_ _094_ _124_ net43 VGND VGND VPWR VPWR _125_ sky130_fd_sc_hd__o31ai_1
XFILLER_13_177 VGND VGND VPWR VPWR sky130_fd_sc_hd__fill_1
X_363_ clknet_2_3__leaf_clk _027_ VGND VGND VPWR VPWR net22 sky130_fd_sc_hd__dfxtp_1
XFILLER_3_89 VGND VGND VPWR VPWR sky130_fd_sc_hd__decap_6
XFILLER_9_104 VGND VGND VPWR VPWR sky130_fd_sc_hd__decap_8
XPHY_EDGE_ROW_19_Left_50 VGND VGND VPWR VPWR sky130_fd_sc_hd__decap_3
XFILLER_8_181 VGND VGND VPWR VPWR sky130_fd_sc_hd__fill_1
X_346_ clknet_2_2__leaf_clk _010_ VGND VGND VPWR VPWR net4 sky130_fd_sc_hd__dfxtp_1
X_277_ _165_ _054_ _112_ _039_ VGND VGND VPWR VPWR _113_ sky130_fd_sc_hd__nand4_1
X_200_ _055_ _057_ VGND VGND VPWR VPWR _000_ sky130_fd_sc_hd__nor2_1
XPHY_EDGE_ROW_4_Left_35 VGND VGND VPWR VPWR sky130_fd_sc_hd__decap_3
X_329_ net31 net30 VGND VGND VPWR VPWR _155_ sky130_fd_sc_hd__and2_1
XFILLER_0_57 VGND VGND VPWR VPWR sky130_fd_sc_hd__decap_3
XFILLER_2_165 VPWR VGND VPWR VGND sky130_ef_sc_hd__decap_12
XFILLER_9_99 VGND VGND VPWR VPWR sky130_fd_sc_hd__fill_1
XFILLER_22_7 VPWR VGND VPWR VGND sky130_ef_sc_hd__decap_12
XFILLER_18_64 VGND VGND VPWR VPWR sky130_fd_sc_hd__decap_3
XFILLER_20_65 VPWR VGND VPWR VGND sky130_ef_sc_hd__decap_12
XFILLER_26_109 VPWR VGND VPWR VGND sky130_ef_sc_hd__decap_12
XFILLER_13_3 VGND VGND VPWR VPWR sky130_fd_sc_hd__decap_4
XFILLER_6_12 VGND VGND VPWR VPWR sky130_fd_sc_hd__fill_1
XTAP_TAPCELL_ROW_27_148 VGND VPWR sky130_fd_sc_hd__tapvpwrvgnd_1
XFILLER_15_76 VPWR VGND VPWR VGND sky130_ef_sc_hd__decap_12
XFILLER_16_153 VGND VGND VPWR VPWR sky130_fd_sc_hd__fill_2
Xoutput20 net20 VGND VGND VPWR VPWR count[25] sky130_fd_sc_hd__buf_2
Xoutput7 net7 VGND VGND VPWR VPWR count[13] sky130_fd_sc_hd__buf_2
Xoutput31 net31 VGND VGND VPWR VPWR count[6] sky130_fd_sc_hd__buf_2
XFILLER_22_112 VPWR VGND VPWR VGND sky130_ef_sc_hd__decap_12
XFILLER_26_97 VPWR VGND VPWR VGND sky130_ef_sc_hd__decap_12
XFILLER_26_53 VPWR VGND VPWR VGND sky130_ef_sc_hd__decap_12
X_293_ net27 net26 _166_ _035_ VGND VGND VPWR VPWR _124_ sky130_fd_sc_hd__a31o_1
X_362_ clknet_2_3__leaf_clk _026_ VGND VGND VPWR VPWR net21 sky130_fd_sc_hd__dfxtp_1
XFILLER_12_99 VGND VGND VPWR VPWR sky130_fd_sc_hd__fill_1
XFILLER_10_126 VGND VGND VPWR VPWR sky130_fd_sc_hd__fill_1
X_276_ net17 net16 net15 net46 VGND VGND VPWR VPWR _112_ sky130_fd_sc_hd__and4_1
XPHY_EDGE_ROW_20_Left_51 VGND VGND VPWR VPWR sky130_fd_sc_hd__decap_3
X_345_ clknet_2_2__leaf_clk _009_ VGND VGND VPWR VPWR net34 sky130_fd_sc_hd__dfxtp_1
XTAP_TAPCELL_ROW_8_89 VGND VPWR sky130_fd_sc_hd__tapvpwrvgnd_1
XPHY_EDGE_ROW_21_Right_21 VGND VGND VPWR VPWR sky130_fd_sc_hd__decap_3
XPHY_EDGE_ROW_12_Right_12 VGND VGND VPWR VPWR sky130_fd_sc_hd__decap_3
XPHY_EDGE_ROW_30_Right_30 VGND VGND VPWR VPWR sky130_fd_sc_hd__decap_3
X_259_ _046_ net39 net41 _038_ VGND VGND VPWR VPWR _100_ sky130_fd_sc_hd__nand4_1
XFILLER_2_100 VGND VGND VPWR VPWR sky130_fd_sc_hd__fill_2
XFILLER_0_47 VGND VGND VPWR VPWR sky130_fd_sc_hd__fill_1
XFILLER_2_177 VGND VGND VPWR VPWR sky130_fd_sc_hd__decap_4
X_328_ net28 net25 net14 net3 VGND VGND VPWR VPWR _154_ sky130_fd_sc_hd__nand4_4
XFILLER_15_7 VPWR VGND VPWR VGND sky130_ef_sc_hd__decap_12
XFILLER_20_77 VGND VGND VPWR VPWR sky130_fd_sc_hd__decap_6
Xhold20 net11 VGND VGND VPWR VPWR net67 sky130_fd_sc_hd__dlygate4sd3_1
XPHY_EDGE_ROW_6_Right_6 VGND VGND VPWR VPWR sky130_fd_sc_hd__decap_3
Xoutput10 net10 VGND VGND VPWR VPWR count[16] sky130_fd_sc_hd__buf_2
XFILLER_16_165 VGND VGND VPWR VPWR sky130_fd_sc_hd__fill_1
XFILLER_15_88 VPWR VGND VPWR VGND sky130_ef_sc_hd__decap_12
Xoutput21 net21 VGND VGND VPWR VPWR count[26] sky130_fd_sc_hd__buf_2
Xoutput32 net32 VGND VGND VPWR VPWR count[7] sky130_fd_sc_hd__buf_2
Xoutput8 net8 VGND VGND VPWR VPWR count[14] sky130_fd_sc_hd__buf_2
XFILLER_22_124 VPWR VGND VPWR VGND sky130_ef_sc_hd__decap_12
XFILLER_26_65 VPWR VGND VPWR VGND sky130_ef_sc_hd__decap_12
X_292_ _121_ _123_ VGND VGND VPWR VPWR _026_ sky130_fd_sc_hd__nor2_1
XFILLER_13_113 VGND VGND VPWR VPWR sky130_fd_sc_hd__decap_6
X_361_ clknet_2_2__leaf_clk _025_ VGND VGND VPWR VPWR net20 sky130_fd_sc_hd__dfxtp_2
XFILLER_3_69 VGND VGND VPWR VPWR sky130_fd_sc_hd__decap_4
XFILLER_6_109 VGND VGND VPWR VPWR sky130_fd_sc_hd__decap_4
X_275_ _043_ _094_ net17 VGND VGND VPWR VPWR _111_ sky130_fd_sc_hd__o21bai_1
XTAP_TAPCELL_ROW_11_100 VGND VPWR sky130_fd_sc_hd__tapvpwrvgnd_1
X_344_ clknet_2_2__leaf_clk _008_ VGND VGND VPWR VPWR net33 sky130_fd_sc_hd__dfxtp_1
XFILLER_23_55 VGND VGND VPWR VPWR sky130_fd_sc_hd__fill_1
XFILLER_0_15 VPWR VGND VPWR VGND sky130_ef_sc_hd__decap_12
XFILLER_3_3 VPWR VGND VPWR VGND sky130_ef_sc_hd__decap_12
X_189_ net17 net16 net15 VGND VGND VPWR VPWR _047_ sky130_fd_sc_hd__and3_1
X_258_ _050_ net39 net10 net41 net67 VGND VGND VPWR VPWR _099_ sky130_fd_sc_hd__a41oi_1
X_327_ net28 net25 _152_ VGND VGND VPWR VPWR _153_ sky130_fd_sc_hd__and3_1
XFILLER_9_57 VPWR VGND VPWR VGND sky130_ef_sc_hd__decap_12
XFILLER_28_141 VPWR VGND VPWR VGND sky130_ef_sc_hd__decap_12
Xhold10 net34 VGND VGND VPWR VPWR net57 sky130_fd_sc_hd__dlygate4sd3_1
XFILLER_6_25 VGND VGND VPWR VPWR sky130_fd_sc_hd__decap_3
XFILLER_25_111 VGND VGND VPWR VPWR sky130_fd_sc_hd__fill_1
Xoutput11 net11 VGND VGND VPWR VPWR count[17] sky130_fd_sc_hd__buf_2
XFILLER_16_100 VGND VGND VPWR VPWR sky130_fd_sc_hd__decap_8
Xoutput22 net22 VGND VGND VPWR VPWR count[27] sky130_fd_sc_hd__buf_2
XFILLER_15_23 VPWR VGND VPWR VGND sky130_ef_sc_hd__decap_12
Xoutput33 net33 VGND VGND VPWR VPWR count[8] sky130_fd_sc_hd__buf_2
Xoutput9 net9 VGND VGND VPWR VPWR count[15] sky130_fd_sc_hd__buf_2
XFILLER_22_147 VGND VGND VPWR VPWR sky130_fd_sc_hd__fill_1
XFILLER_22_136 VGND VGND VPWR VPWR sky130_fd_sc_hd__decap_4
XFILLER_26_77 VGND VGND VPWR VPWR sky130_fd_sc_hd__decap_6
XFILLER_13_169 VGND VGND VPWR VPWR sky130_fd_sc_hd__decap_8
XFILLER_13_136 VGND VGND VPWR VPWR sky130_fd_sc_hd__decap_6
X_291_ _034_ _114_ net43 VGND VGND VPWR VPWR _123_ sky130_fd_sc_hd__o21ai_1
X_360_ clknet_2_2__leaf_clk _024_ VGND VGND VPWR VPWR net19 sky130_fd_sc_hd__dfxtp_2
XFILLER_3_15 VPWR VGND VPWR VGND sky130_ef_sc_hd__decap_12
X_274_ _110_ _109_ VGND VGND VPWR VPWR _021_ sky130_fd_sc_hd__nor2_1
X_343_ clknet_2_0__leaf_clk _007_ VGND VGND VPWR VPWR net32 sky130_fd_sc_hd__dfxtp_1
XFILLER_5_110 VGND VGND VPWR VPWR sky130_fd_sc_hd__fill_2
XFILLER_0_27 VGND VGND VPWR VPWR sky130_fd_sc_hd__fill_1
XFILLER_29_3 VPWR VGND VPWR VGND sky130_ef_sc_hd__decap_12
X_188_ _036_ _039_ _041_ _044_ VGND VGND VPWR VPWR _046_ sky130_fd_sc_hd__nand4_2
X_257_ _097_ _098_ net42 VGND VGND VPWR VPWR _016_ sky130_fd_sc_hd__and3_1
XFILLER_9_69 VGND VGND VPWR VPWR sky130_fd_sc_hd__fill_1
X_326_ net14 net3 VGND VGND VPWR VPWR _152_ sky130_fd_sc_hd__and2_1
XPHY_EDGE_ROW_8_Left_39 VGND VGND VPWR VPWR sky130_fd_sc_hd__decap_3
X_309_ net62 VGND VGND VPWR VPWR _135_ sky130_fd_sc_hd__inv_2
XFILLER_29_55 VGND VGND VPWR VPWR sky130_fd_sc_hd__fill_1
XFILLER_28_153 VPWR VGND VPWR VGND sky130_ef_sc_hd__decap_12
Xhold11 net3 VGND VGND VPWR VPWR net58 sky130_fd_sc_hd__dlygate4sd3_1
XFILLER_20_7 VPWR VGND VPWR VGND sky130_ef_sc_hd__decap_12
XFILLER_25_167 VGND VGND VPWR VPWR sky130_fd_sc_hd__fill_1
Xoutput23 net23 VGND VGND VPWR VPWR count[28] sky130_fd_sc_hd__buf_2
Xoutput12 net12 VGND VGND VPWR VPWR count[18] sky130_fd_sc_hd__buf_2
XFILLER_15_57 VGND VGND VPWR VPWR sky130_fd_sc_hd__fill_2
XFILLER_15_35 VPWR VGND VPWR VGND sky130_ef_sc_hd__decap_12
Xoutput34 net34 VGND VGND VPWR VPWR count[9] sky130_fd_sc_hd__buf_2
XFILLER_16_145 VGND VGND VPWR VPWR sky130_fd_sc_hd__fill_1
XFILLER_16_123 VGND VGND VPWR VPWR sky130_fd_sc_hd__fill_1
XFILLER_11_3 VGND VGND VPWR VPWR sky130_fd_sc_hd__fill_2
XFILLER_30_181 VGND VGND VPWR VPWR sky130_fd_sc_hd__fill_1
X_290_ net40 _033_ _053_ _116_ VGND VGND VPWR VPWR _122_ sky130_fd_sc_hd__nand4_1
XFILLER_3_27 VGND VGND VPWR VPWR sky130_fd_sc_hd__decap_6
XFILLER_3_38 VGND VGND VPWR VPWR sky130_fd_sc_hd__fill_1
XFILLER_9_119 VGND VGND VPWR VPWR sky130_fd_sc_hd__fill_2
XFILLER_8_141 VPWR VGND VPWR VGND sky130_ef_sc_hd__decap_12
X_273_ _043_ _095_ net42 VGND VGND VPWR VPWR _110_ sky130_fd_sc_hd__o21ai_1
XFILLER_12_47 VGND VGND VPWR VPWR sky130_fd_sc_hd__fill_1
X_342_ clknet_2_0__leaf_clk _006_ VGND VGND VPWR VPWR net31 sky130_fd_sc_hd__dfxtp_1
XFILLER_23_57 VPWR VGND VPWR VGND sky130_ef_sc_hd__decap_12
XFILLER_4_92 VPWR VGND VPWR VGND sky130_ef_sc_hd__decap_12
XPHY_EDGE_ROW_24_Left_55 VGND VGND VPWR VPWR sky130_fd_sc_hd__decap_3
X_187_ _039_ _041_ _044_ VGND VGND VPWR VPWR _045_ sky130_fd_sc_hd__nand3_1
X_256_ _046_ net39 net10 net41 VGND VGND VPWR VPWR _098_ sky130_fd_sc_hd__nand4_1
X_325_ net42 VGND VGND VPWR VPWR _151_ sky130_fd_sc_hd__inv_2
Xclkload0 clknet_2_0__leaf_clk VGND VGND VPWR VPWR clkload0/X sky130_fd_sc_hd__clkbuf_4
X_308_ net27 _133_ net44 VGND VGND VPWR VPWR _031_ sky130_fd_sc_hd__o21a_1
XFILLER_1_60 VGND VGND VPWR VPWR sky130_fd_sc_hd__fill_1
X_239_ _051_ net38 net6 VGND VGND VPWR VPWR _085_ sky130_fd_sc_hd__and3_1
XFILLER_28_165 VPWR VGND VPWR VGND sky130_ef_sc_hd__decap_12
XFILLER_28_121 VPWR VGND VPWR VGND sky130_ef_sc_hd__decap_12
Xhold12 net16 VGND VGND VPWR VPWR net59 sky130_fd_sc_hd__dlygate4sd3_1
XFILLER_19_132 VPWR VGND VPWR VGND sky130_ef_sc_hd__decap_12
XFILLER_25_113 VPWR VGND VPWR VGND sky130_ef_sc_hd__decap_12
Xoutput24 net24 VGND VGND VPWR VPWR count[29] sky130_fd_sc_hd__buf_2
Xoutput13 net13 VGND VGND VPWR VPWR count[19] sky130_fd_sc_hd__buf_2
XFILLER_15_47 VGND VGND VPWR VPWR sky130_fd_sc_hd__fill_1
XPHY_EDGE_ROW_11_Left_42 VGND VGND VPWR VPWR sky130_fd_sc_hd__decap_3
XPHY_EDGE_ROW_28_Right_28 VGND VGND VPWR VPWR sky130_fd_sc_hd__decap_3
XPHY_EDGE_ROW_19_Right_19 VGND VGND VPWR VPWR sky130_fd_sc_hd__decap_3
XTAP_TAPCELL_ROW_18_119 VGND VPWR sky130_fd_sc_hd__tapvpwrvgnd_1
XFILLER_12_160 VGND VGND VPWR VPWR sky130_fd_sc_hd__fill_1
XFILLER_8_153 VPWR VGND VPWR VGND sky130_ef_sc_hd__decap_12
X_272_ _165_ _054_ _042_ net47 net59 VGND VGND VPWR VPWR _109_ sky130_fd_sc_hd__a41oi_1
XTAP_TAPCELL_ROW_20_125 VGND VPWR sky130_fd_sc_hd__tapvpwrvgnd_1
XFILLER_12_15 VPWR VGND VPWR VGND sky130_ef_sc_hd__decap_12
X_341_ clknet_2_0__leaf_clk _005_ VGND VGND VPWR VPWR net30 sky130_fd_sc_hd__dfxtp_1
XFILLER_10_119 VGND VGND VPWR VPWR sky130_fd_sc_hd__fill_1
XFILLER_23_69 VPWR VGND VPWR VGND sky130_ef_sc_hd__decap_12
X_186_ net18 net17 VGND VGND VPWR VPWR _044_ sky130_fd_sc_hd__and2_1
XFILLER_13_80 VPWR VGND VPWR VGND sky130_ef_sc_hd__decap_12
X_255_ _050_ net39 net41 net10 VGND VGND VPWR VPWR _097_ sky130_fd_sc_hd__a31o_1
X_324_ net46 VGND VGND VPWR VPWR _150_ sky130_fd_sc_hd__inv_2
XFILLER_2_137 VGND VGND VPWR VPWR sky130_fd_sc_hd__decap_3
XFILLER_0_29 VPWR VGND VPWR VGND sky130_ef_sc_hd__decap_12
XFILLER_9_49 VGND VGND VPWR VPWR sky130_fd_sc_hd__fill_1
XFILLER_1_181 VGND VGND VPWR VPWR sky130_fd_sc_hd__fill_1
XTAP_TAPCELL_ROW_9_92 VGND VPWR sky130_fd_sc_hd__tapvpwrvgnd_1
XFILLER_1_3 VPWR VGND VPWR VGND sky130_ef_sc_hd__decap_12
Xclkload1 clknet_2_2__leaf_clk VGND VGND VPWR VPWR clkload1/Y sky130_fd_sc_hd__clkinv_2
X_307_ _135_ _131_ _134_ VGND VGND VPWR VPWR _030_ sky130_fd_sc_hd__a21oi_1
X_169_ net9 net8 net7 net6 VGND VGND VPWR VPWR _163_ sky130_fd_sc_hd__nand4_2
X_238_ _051_ net38 net6 VGND VGND VPWR VPWR _084_ sky130_fd_sc_hd__a21oi_1
XFILLER_29_57 VPWR VGND VPWR VGND sky130_ef_sc_hd__decap_12
XFILLER_28_177 VGND VGND VPWR VPWR sky130_fd_sc_hd__decap_4
XFILLER_28_133 VGND VGND VPWR VPWR sky130_fd_sc_hd__decap_6
Xhold13 net7 VGND VGND VPWR VPWR net60 sky130_fd_sc_hd__dlygate4sd3_1
XFILLER_19_166 VGND VGND VPWR VPWR sky130_fd_sc_hd__fill_2
XFILLER_19_144 VPWR VGND VPWR VGND sky130_ef_sc_hd__decap_12
XFILLER_25_169 VPWR VGND VPWR VGND sky130_ef_sc_hd__decap_12
XFILLER_25_125 VPWR VGND VPWR VGND sky130_ef_sc_hd__decap_12
XFILLER_16_114 VGND VGND VPWR VPWR sky130_fd_sc_hd__decap_4
Xoutput25 net25 VGND VGND VPWR VPWR count[2] sky130_fd_sc_hd__buf_2
Xoutput14 net14 VGND VGND VPWR VPWR count[1] sky130_fd_sc_hd__buf_2
XTAP_TAPCELL_ROW_23_134 VGND VPWR sky130_fd_sc_hd__tapvpwrvgnd_1
XFILLER_8_165 VPWR VGND VPWR VGND sky130_ef_sc_hd__decap_12
XTAP_TAPCELL_ROW_20_126 VGND VPWR sky130_fd_sc_hd__tapvpwrvgnd_1
XFILLER_12_27 VGND VGND VPWR VPWR sky130_fd_sc_hd__fill_1
X_271_ _140_ _105_ net42 _108_ VGND VGND VPWR VPWR _020_ sky130_fd_sc_hd__o211a_1
XFILLER_5_102 VGND VGND VPWR VPWR sky130_fd_sc_hd__decap_8
XFILLER_5_113 VGND VGND VPWR VPWR sky130_fd_sc_hd__decap_8
XFILLER_5_124 VPWR VGND VPWR VGND sky130_ef_sc_hd__decap_12
X_340_ clknet_2_0__leaf_clk _004_ VGND VGND VPWR VPWR net29 sky130_fd_sc_hd__dfxtp_1
XFILLER_23_15 VPWR VGND VPWR VGND sky130_ef_sc_hd__decap_12
X_185_ _039_ _041_ VGND VGND VPWR VPWR _043_ sky130_fd_sc_hd__nand2_1
X_254_ _143_ _092_ _096_ VGND VGND VPWR VPWR _015_ sky130_fd_sc_hd__a21oi_1
X_323_ net61 VGND VGND VPWR VPWR _149_ sky130_fd_sc_hd__inv_2
XTAP_TAPCELL_ROW_0_62 VGND VPWR sky130_fd_sc_hd__tapvpwrvgnd_1
XTAP_TAPCELL_ROW_9_93 VGND VPWR sky130_fd_sc_hd__tapvpwrvgnd_1
XFILLER_18_15 VPWR VGND VPWR VGND sky130_ef_sc_hd__decap_12
XFILLER_27_3 VPWR VGND VPWR VGND sky130_ef_sc_hd__decap_12
X_306_ _167_ _127_ _128_ net44 VGND VGND VPWR VPWR _134_ sky130_fd_sc_hd__o31ai_1
X_237_ _144_ _080_ _083_ VGND VGND VPWR VPWR _011_ sky130_fd_sc_hd__a21oi_1
X_168_ net7 net6 VGND VGND VPWR VPWR _162_ sky130_fd_sc_hd__nand2_1
XFILLER_29_69 VPWR VGND VPWR VGND sky130_ef_sc_hd__decap_12
XFILLER_20_27 VGND VGND VPWR VPWR sky130_fd_sc_hd__fill_1
Xhold14 net28 VGND VGND VPWR VPWR net61 sky130_fd_sc_hd__dlygate4sd3_1
XFILLER_19_156 VGND VGND VPWR VPWR sky130_fd_sc_hd__decap_3
XFILLER_6_29 VGND VGND VPWR VPWR sky130_fd_sc_hd__fill_2
XFILLER_10_82 VGND VGND VPWR VPWR sky130_fd_sc_hd__fill_2
XFILLER_25_137 VPWR VGND VPWR VGND sky130_ef_sc_hd__decap_12
XTAP_TAPCELL_ROW_6_83 VGND VPWR sky130_fd_sc_hd__tapvpwrvgnd_1
Xoutput15 net15 VGND VGND VPWR VPWR count[20] sky130_fd_sc_hd__buf_2
XTAP_TAPCELL_ROW_26_143 VGND VPWR sky130_fd_sc_hd__tapvpwrvgnd_1
XFILLER_24_181 VGND VGND VPWR VPWR sky130_fd_sc_hd__fill_1
Xoutput26 net26 VGND VGND VPWR VPWR count[30] sky130_fd_sc_hd__buf_2
XPHY_EDGE_ROW_1_Right_1 VGND VGND VPWR VPWR sky130_fd_sc_hd__decap_3
XFILLER_7_50 VGND VGND VPWR VPWR sky130_fd_sc_hd__decap_6
XFILLER_26_15 VPWR VGND VPWR VGND sky130_ef_sc_hd__decap_12
XTAP_TAPCELL_ROW_23_135 VGND VPWR sky130_fd_sc_hd__tapvpwrvgnd_1
XFILLER_8_177 VGND VGND VPWR VPWR sky130_fd_sc_hd__decap_4
XTAP_TAPCELL_ROW_20_127 VGND VPWR sky130_fd_sc_hd__tapvpwrvgnd_1
X_270_ _140_ _106_ VGND VGND VPWR VPWR _108_ sky130_fd_sc_hd__nand2_1
XFILLER_5_136 VPWR VGND VPWR VGND sky130_ef_sc_hd__decap_12
XFILLER_5_169 VPWR VGND VPWR VGND sky130_ef_sc_hd__decap_12
XFILLER_23_27 VPWR VGND VPWR VGND sky130_ef_sc_hd__decap_12
X_322_ net54 VGND VGND VPWR VPWR _148_ sky130_fd_sc_hd__inv_2
X_184_ net15 net13 net12 _038_ VGND VGND VPWR VPWR _042_ sky130_fd_sc_hd__and4_1
X_253_ _050_ net39 net41 _151_ VGND VGND VPWR VPWR _096_ sky130_fd_sc_hd__a31o_1
XTAP_TAPCELL_ROW_0_63 VGND VPWR sky130_fd_sc_hd__tapvpwrvgnd_1
XTAP_TAPCELL_ROW_9_94 VGND VPWR sky130_fd_sc_hd__tapvpwrvgnd_1
XFILLER_18_38 VGND VGND VPWR VPWR sky130_fd_sc_hd__decap_8
XFILLER_18_27 VGND VGND VPWR VPWR sky130_fd_sc_hd__fill_1
XPHY_EDGE_ROW_28_Left_59 VGND VGND VPWR VPWR sky130_fd_sc_hd__decap_3
X_305_ _167_ _127_ _128_ VGND VGND VPWR VPWR _133_ sky130_fd_sc_hd__nor3_1
X_236_ net36 _082_ _151_ VGND VGND VPWR VPWR _083_ sky130_fd_sc_hd__a21o_1
XFILLER_29_15 VPWR VGND VPWR VGND sky130_ef_sc_hd__decap_12
Xhold15 net26 VGND VGND VPWR VPWR net62 sky130_fd_sc_hd__dlygate4sd3_1
XFILLER_19_102 VGND VGND VPWR VPWR sky130_fd_sc_hd__decap_3
XTAP_TAPCELL_ROW_29_152 VGND VPWR sky130_fd_sc_hd__tapvpwrvgnd_1
XFILLER_25_105 VGND VGND VPWR VPWR sky130_fd_sc_hd__decap_6
XFILLER_19_124 VGND VGND VPWR VPWR sky130_fd_sc_hd__decap_3
X_219_ _070_ net42 VGND VGND VPWR VPWR _071_ sky130_fd_sc_hd__nand2_1
XTAP_TAPCELL_ROW_6_84 VGND VPWR sky130_fd_sc_hd__tapvpwrvgnd_1
Xoutput16 net16 VGND VGND VPWR VPWR count[21] sky130_fd_sc_hd__buf_2
XTAP_TAPCELL_ROW_26_144 VGND VPWR sky130_fd_sc_hd__tapvpwrvgnd_1
XFILLER_25_149 VPWR VGND VPWR VGND sky130_ef_sc_hd__decap_12
Xoutput27 net27 VGND VGND VPWR VPWR count[31] sky130_fd_sc_hd__buf_2
XFILLER_16_138 VGND VGND VPWR VPWR sky130_fd_sc_hd__fill_2
Xclkbuf_0_clk clk VGND VGND VPWR VPWR clknet_0_clk sky130_fd_sc_hd__clkbuf_16
XFILLER_30_141 VPWR VGND VPWR VGND sky130_ef_sc_hd__decap_12
XFILLER_26_27 VGND VGND VPWR VPWR sky130_fd_sc_hd__fill_1
XPHY_EDGE_ROW_24_Right_24 VGND VGND VPWR VPWR sky130_fd_sc_hd__decap_3
XTAP_TAPCELL_ROW_23_136 VGND VPWR sky130_fd_sc_hd__tapvpwrvgnd_1
XPHY_EDGE_ROW_15_Right_15 VGND VGND VPWR VPWR sky130_fd_sc_hd__decap_3
XPHY_EDGE_ROW_15_Left_46 VGND VGND VPWR VPWR sky130_fd_sc_hd__decap_3
XFILLER_13_119 VGND VGND VPWR VPWR sky130_fd_sc_hd__fill_1
XFILLER_12_141 VGND VGND VPWR VPWR sky130_fd_sc_hd__decap_4
XTAP_TAPCELL_ROW_3_74 VGND VPWR sky130_fd_sc_hd__tapvpwrvgnd_1
XFILLER_8_101 VGND VGND VPWR VPWR sky130_fd_sc_hd__fill_2
XFILLER_8_112 VGND VGND VPWR VPWR sky130_fd_sc_hd__fill_1
XFILLER_12_29 VPWR VGND VPWR VGND sky130_ef_sc_hd__decap_12
XFILLER_5_148 VPWR VGND VPWR VGND sky130_ef_sc_hd__decap_12
XFILLER_27_81 VPWR VGND VPWR VGND sky130_ef_sc_hd__decap_12
XFILLER_4_41 VPWR VGND VPWR VGND sky130_ef_sc_hd__decap_12
XFILLER_23_39 VPWR VGND VPWR VGND sky130_ef_sc_hd__decap_12
XFILLER_2_129 VGND VGND VPWR VPWR sky130_fd_sc_hd__decap_8
X_183_ net16 net15 VGND VGND VPWR VPWR _041_ sky130_fd_sc_hd__and2_1
X_252_ _050_ net39 net41 VGND VGND VPWR VPWR _095_ sky130_fd_sc_hd__nand3_1
X_321_ net50 VGND VGND VPWR VPWR _147_ sky130_fd_sc_hd__inv_2
XTAP_TAPCELL_ROW_0_64 VGND VPWR sky130_fd_sc_hd__tapvpwrvgnd_1
X_304_ _136_ _130_ _132_ VGND VGND VPWR VPWR _029_ sky130_fd_sc_hd__a21oi_1
XPHY_EDGE_ROW_3_Left_34 VGND VGND VPWR VPWR sky130_fd_sc_hd__decap_3
X_235_ _150_ _154_ _156_ _160_ VGND VGND VPWR VPWR _082_ sky130_fd_sc_hd__nor4_1
XFILLER_20_29 VPWR VGND VPWR VGND sky130_ef_sc_hd__decap_12
XFILLER_29_27 VPWR VGND VPWR VGND sky130_ef_sc_hd__decap_12
Xhold16 net14 VGND VGND VPWR VPWR net63 sky130_fd_sc_hd__dlygate4sd3_1
XTAP_TAPCELL_ROW_10_95 VGND VPWR sky130_fd_sc_hd__tapvpwrvgnd_1
XTAP_TAPCELL_ROW_29_153 VGND VPWR sky130_fd_sc_hd__tapvpwrvgnd_1
XFILLER_19_169 VGND VGND VPWR VPWR sky130_fd_sc_hd__decap_3
X_218_ net35 _065_ net45 _155_ VGND VGND VPWR VPWR _070_ sky130_fd_sc_hd__nand4_1
XTAP_TAPCELL_ROW_6_85 VGND VPWR sky130_fd_sc_hd__tapvpwrvgnd_1
Xoutput17 net17 VGND VGND VPWR VPWR count[22] sky130_fd_sc_hd__buf_2
XFILLER_18_180 VGND VGND VPWR VPWR sky130_fd_sc_hd__fill_2
Xoutput28 net28 VGND VGND VPWR VPWR count[3] sky130_fd_sc_hd__buf_2
XTAP_TAPCELL_ROW_26_145 VGND VPWR sky130_fd_sc_hd__tapvpwrvgnd_1
XFILLER_30_153 VPWR VGND VPWR VGND sky130_ef_sc_hd__decap_12
XFILLER_30_131 VGND VGND VPWR VPWR sky130_fd_sc_hd__decap_8
XFILLER_15_150 VPWR VGND VPWR VGND sky130_ef_sc_hd__decap_12
XFILLER_12_120 VGND VGND VPWR VPWR sky130_fd_sc_hd__fill_2
XTAP_TAPCELL_ROW_3_75 VGND VPWR sky130_fd_sc_hd__tapvpwrvgnd_1
XFILLER_27_93 VPWR VGND VPWR VGND sky130_ef_sc_hd__decap_12
Xclkbuf_2_0__f_clk clknet_0_clk VGND VGND VPWR VPWR clknet_2_0__leaf_clk sky130_fd_sc_hd__clkbuf_16
XFILLER_4_53 VPWR VGND VPWR VGND sky130_ef_sc_hd__decap_12
X_182_ net13 net12 net11 net10 VGND VGND VPWR VPWR _040_ sky130_fd_sc_hd__nand4_2
X_251_ net46 _157_ _164_ VGND VGND VPWR VPWR _094_ sky130_fd_sc_hd__nand3_1
Xfanout41 _164_ VGND VGND VPWR VPWR net41 sky130_fd_sc_hd__buf_2
XTAP_TAPCELL_ROW_0_65 VGND VPWR sky130_fd_sc_hd__tapvpwrvgnd_1
X_320_ net57 VGND VGND VPWR VPWR _146_ sky130_fd_sc_hd__inv_2
XFILLER_18_29 VGND VGND VPWR VPWR sky130_fd_sc_hd__decap_6
XFILLER_24_83 VGND VGND VPWR VPWR sky130_fd_sc_hd__fill_1
X_303_ _131_ net44 VGND VGND VPWR VPWR _132_ sky130_fd_sc_hd__nand2_1
X_234_ _145_ _078_ _081_ VGND VGND VPWR VPWR _010_ sky130_fd_sc_hd__a21oi_1
XFILLER_1_54 VGND VGND VPWR VPWR sky130_fd_sc_hd__fill_2
XFILLER_29_39 VPWR VGND VPWR VGND sky130_ef_sc_hd__decap_12
XFILLER_20_19 VGND VGND VPWR VPWR sky130_fd_sc_hd__decap_8
Xhold17 net29 VGND VGND VPWR VPWR net64 sky130_fd_sc_hd__dlygate4sd3_1
XTAP_TAPCELL_ROW_10_96 VGND VPWR sky130_fd_sc_hd__tapvpwrvgnd_1
XTAP_TAPCELL_ROW_29_154 VGND VPWR sky130_fd_sc_hd__tapvpwrvgnd_1
XFILLER_27_181 VGND VGND VPWR VPWR sky130_fd_sc_hd__fill_1
XFILLER_19_94 VGND VGND VPWR VPWR sky130_fd_sc_hd__decap_8
X_217_ _067_ _069_ VGND VGND VPWR VPWR _005_ sky130_fd_sc_hd__nor2_1
XFILLER_10_63 VGND VGND VPWR VPWR sky130_fd_sc_hd__decap_3
XFILLER_10_85 VGND VGND VPWR VPWR sky130_fd_sc_hd__fill_1
Xoutput18 net18 VGND VGND VPWR VPWR count[23] sky130_fd_sc_hd__buf_2
XFILLER_25_3 VPWR VGND VPWR VGND sky130_ef_sc_hd__decap_12
Xoutput29 net29 VGND VGND VPWR VPWR count[4] sky130_fd_sc_hd__buf_2
XFILLER_16_118 VGND VGND VPWR VPWR sky130_fd_sc_hd__fill_1
XFILLER_30_165 VGND VGND VPWR VPWR sky130_fd_sc_hd__decap_3
XFILLER_15_162 VGND VGND VPWR VPWR sky130_fd_sc_hd__decap_6
XFILLER_26_29 VPWR VGND VPWR VGND sky130_ef_sc_hd__decap_12
XFILLER_21_165 VGND VGND VPWR VPWR sky130_fd_sc_hd__decap_3
XPHY_EDGE_ROW_5_Right_5 VGND VGND VPWR VPWR sky130_fd_sc_hd__decap_3
XFILLER_16_51 VGND VGND VPWR VPWR sky130_fd_sc_hd__decap_8
XFILLER_12_154 VGND VGND VPWR VPWR sky130_fd_sc_hd__decap_6
XTAP_TAPCELL_ROW_3_76 VGND VPWR sky130_fd_sc_hd__tapvpwrvgnd_1
XFILLER_4_65 VGND VGND VPWR VPWR sky130_fd_sc_hd__decap_3
X_181_ net13 net12 net11 net10 VGND VGND VPWR VPWR _039_ sky130_fd_sc_hd__and4_2
Xfanout42 net44 VGND VGND VPWR VPWR net42 sky130_fd_sc_hd__buf_2
X_250_ _091_ _093_ VGND VGND VPWR VPWR _014_ sky130_fd_sc_hd__nor2_1
XTAP_TAPCELL_ROW_0_66 VGND VPWR sky130_fd_sc_hd__tapvpwrvgnd_1
X_302_ net40 _166_ _053_ net37 VGND VGND VPWR VPWR _131_ sky130_fd_sc_hd__nand4_1
X_233_ _080_ net43 VGND VGND VPWR VPWR _081_ sky130_fd_sc_hd__nand2_1
Xhold18 net18 VGND VGND VPWR VPWR net65 sky130_fd_sc_hd__dlygate4sd3_1
XTAP_TAPCELL_ROW_10_97 VGND VPWR sky130_fd_sc_hd__tapvpwrvgnd_1
XFILLER_19_116 VGND VGND VPWR VPWR sky130_fd_sc_hd__decap_8
XFILLER_18_3 VPWR VGND VPWR VGND sky130_ef_sc_hd__decap_12
X_216_ _068_ net42 VGND VGND VPWR VPWR _069_ sky130_fd_sc_hd__nand2_1
XFILLER_24_141 VPWR VGND VPWR VGND sky130_ef_sc_hd__decap_12
XFILLER_21_30 VGND VGND VPWR VPWR sky130_fd_sc_hd__decap_8
XFILLER_16_108 VGND VGND VPWR VPWR sky130_fd_sc_hd__fill_2
Xoutput19 net19 VGND VGND VPWR VPWR count[24] sky130_fd_sc_hd__buf_2
XFILLER_21_177 VGND VGND VPWR VPWR sky130_fd_sc_hd__fill_1
XPHY_EDGE_ROW_20_Right_20 VGND VGND VPWR VPWR sky130_fd_sc_hd__decap_3
XFILLER_16_85 VGND VGND VPWR VPWR sky130_fd_sc_hd__fill_1