*SPEF "ieee 1481-1999"
*DESIGN "counter32"
*DATE "18:42:06 Thursday February 12, 2026"
*VENDOR "The OpenROAD Project"
*PROGRAM "OpenROAD"
*VERSION "edf00dff99f6c40d67a30c0e22a8191c5d2ed9d6"
*DESIGN_FLOW "NAME_SCOPE LOCAL" "PIN_CAP NONE"
*DIVIDER /
*DELIMITER :
*BUS_DELIMITER []
*T_UNIT 1 NS
*C_UNIT 1 PF
*R_UNIT 1 OHM
*L_UNIT 1 HENRY

*NAME_MAP
*3 clk
*4 count[0]
*5 count[10]
*6 count[11]
*7 count[12]
*8 count[13]
*9 count[14]
*10 count[15]
*11 count[16]
*12 count[17]
*13 count[18]
*14 count[19]
*15 count[1]
*16 count[20]
*17 count[21]
*18 count[22]
*19 count[23]
*20 count[24]
*21 count[25]
*22 count[26]
*23 count[27]
*24 count[28]
*25 count[29]
*26 count[2]
*27 count[30]
*28 count[31]
*29 count[3]
*30 count[4]
*31 count[5]
*32 count[6]
*33 count[7]
*34 count[8]
*35 count[9]
*36 en
*37 rst_n
*38 _000_
*39 _001_
*40 _002_
*41 _003_
*42 _004_
*43 _005_
*44 _006_
*45 _007_
*46 _008_
*47 _009_
*48 _010_
*49 _011_
*50 _012_
*51 _013_
*52 _014_
*53 _015_
*54 _016_
*55 _017_
*56 _018_
*57 _019_
*58 _020_
*59 _021_
*60 _022_
*61 _023_
*62 _024_
*63 _025_
*64 _026_
*65 _027_
*66 _028_
*67 _029_
*68 _030_
*69 _031_
*70 _032_
*71 _033_
*72 _034_
*73 _035_
*74 _036_
*75 _037_
*76 _038_
*77 _039_
*78 _040_
*79 _041_
*80 _042_
*81 _043_
*82 _044_
*83 _045_
*84 _046_
*85 _047_
*86 _048_
*87 _049_
*88 _050_
*89 _051_
*90 _052_
*91 _053_
*92 _054_
*93 _055_
*94 _056_
*95 _057_
*96 _058_
*97 _059_
*98 _060_
*99 _061_
*100 _062_
*101 _063_
*102 _064_
*103 _065_
*104 _066_
*105 _067_
*106 _068_
*107 _069_
*108 _070_
*109 _071_
*110 _072_
*111 _073_
*112 _074_
*113 _075_
*114 _076_
*115 _077_
*116 _078_
*117 _079_
*118 _080_
*119 _081_
*120 _082_
*121 _083_
*122 _084_
*123 _085_
*124 _086_
*125 _087_
*126 _088_
*127 _089_
*128 _090_
*129 _091_
*130 _092_
*131 _093_
*132 _094_
*133 _095_
*134 _096_
*135 _097_
*136 _098_
*137 _099_
*138 _100_
*139 _101_
*140 _102_
*141 _103_
*142 _104_
*143 _105_
*144 _106_
*145 _107_
*146 _108_
*147 _109_
*148 _110_
*149 _111_
*150 _112_
*151 _113_
*152 _114_
*153 _115_
*154 _116_
*155 _117_
*156 _118_
*157 _119_
*158 _120_
*159 _121_
*160 _122_
*161 _123_
*162 _124_
*163 _125_
*164 _126_
*165 _127_
*166 _128_
*167 _129_
*168 _130_
*169 _131_
*170 _132_
*171 _133_
*172 _134_
*173 _135_
*174 _136_
*175 _137_
*176 _138_
*177 _139_
*178 _140_
*179 _141_
*180 _142_
*181 _143_
*182 _144_
*183 _145_
*184 _146_
*185 _147_
*186 _148_
*187 _149_
*188 _150_
*189 _151_
*190 _152_
*191 _153_
*192 _154_
*193 _155_
*194 _156_
*195 _157_
*196 _158_
*197 _159_
*198 _160_
*199 _161_
*200 _162_
*201 _163_
*202 _164_
*203 _165_
*204 _166_
*205 _167_
*206 clknet_0_clk
*207 clknet_2_0__leaf_clk
*208 clknet_2_1__leaf_clk
*209 clknet_2_2__leaf_clk
*210 clknet_2_3__leaf_clk
*211 net1
*212 net10
*213 net11
*214 net12
*215 net13
*216 net14
*217 net15
*218 net16
*219 net17
*220 net18
*221 net19
*222 net2
*223 net20
*224 net21
*225 net22
*226 net23
*227 net24
*228 net25
*229 net26
*230 net27
*231 net28
*232 net29
*233 net3
*234 net30
*235 net31
*236 net32
*237 net33
*238 net34
*239 net35
*240 net36
*241 net37
*242 net38
*243 net39
*244 net4
*245 net40
*246 net41
*247 net42
*248 net43
*249 net44
*250 net45
*251 net46
*252 net47
*253 net48
*254 net49
*255 net5
*256 net50
*257 net51
*258 net52
*259 net53
*260 net54
*261 net55
*262 net56
*263 net57
*264 net58
*265 net59
*266 net6
*267 net60
*268 net61
*269 net62
*270 net63
*271 net64
*272 net65
*273 net66
*274 net67
*275 net7
*276 net8
*277 net9
*278 FILLER_0_105
*279 FILLER_0_113
*280 FILLER_0_137
*281 FILLER_0_141
*282 FILLER_0_15
*283 FILLER_0_153
*284 FILLER_0_165
*285 FILLER_0_169
*286 FILLER_0_181
*287 FILLER_0_27
*288 FILLER_0_29
*289 FILLER_0_3
*290 FILLER_0_41
*291 FILLER_0_47
*292 FILLER_0_57
*293 FILLER_0_85
*294 FILLER_0_91
*295 FILLER_0_98
*296 FILLER_10_113
*297 FILLER_10_119
*298 FILLER_10_126
*299 FILLER_10_132
*300 FILLER_10_141
*301 FILLER_10_178
*302 FILLER_10_63
*303 FILLER_10_82
*304 FILLER_10_85
*305 FILLER_11_106
*306 FILLER_11_111
*307 FILLER_11_113
*308 FILLER_11_119
*309 FILLER_11_13
*310 FILLER_11_131
*311 FILLER_11_139
*312 FILLER_11_153
*313 FILLER_11_165
*314 FILLER_11_169
*315 FILLER_11_177
*316 FILLER_11_25
*317 FILLER_11_3
*318 FILLER_11_37
*319 FILLER_11_49
*320 FILLER_11_55
*321 FILLER_11_57
*322 FILLER_11_65
*323 FILLER_11_76
*324 FILLER_11_84
*325 FILLER_12_108
*326 FILLER_12_120
*327 FILLER_12_129
*328 FILLER_12_137
*329 FILLER_12_141
*330 FILLER_12_145
*331 FILLER_12_15
*332 FILLER_12_154
*333 FILLER_12_160
*334 FILLER_12_177
*335 FILLER_12_27
*336 FILLER_12_29
*337 FILLER_12_3
*338 FILLER_12_41
*339 FILLER_12_47
*340 FILLER_12_60
*341 FILLER_12_72
*342 FILLER_12_83
*343 FILLER_12_85
*344 FILLER_12_95
*345 FILLER_12_99
*346 FILLER_13_113
*347 FILLER_13_119
*348 FILLER_13_136
*349 FILLER_13_169
*350 FILLER_13_177
*351 FILLER_13_3
*352 FILLER_13_36
*353 FILLER_13_48
*354 FILLER_13_54
*355 FILLER_13_80
*356 FILLER_13_97
*357 FILLER_14_119
*358 FILLER_14_125
*359 FILLER_14_135
*360 FILLER_14_139
*361 FILLER_14_141
*362 FILLER_14_149
*363 FILLER_14_154
*364 FILLER_14_162
*365 FILLER_14_180
*366 FILLER_14_25
*367 FILLER_14_3
*368 FILLER_14_60
*369 FILLER_14_80
*370 FILLER_15_100
*371 FILLER_15_108
*372 FILLER_15_113
*373 FILLER_15_150
*374 FILLER_15_162
*375 FILLER_15_169
*376 FILLER_15_177
*377 FILLER_15_23
*378 FILLER_15_35
*379 FILLER_15_47
*380 FILLER_15_53
*381 FILLER_15_57
*382 FILLER_15_64
*383 FILLER_15_7
*384 FILLER_15_76
*385 FILLER_15_88
*386 FILLER_16_100
*387 FILLER_16_108
*388 FILLER_16_114
*389 FILLER_16_118
*390 FILLER_16_123
*391 FILLER_16_130
*392 FILLER_16_138
*393 FILLER_16_141
*394 FILLER_16_145
*395 FILLER_16_15
*396 FILLER_16_153
*397 FILLER_16_161
*398 FILLER_16_165
*399 FILLER_16_27
*400 FILLER_16_29
*401 FILLER_16_3
*402 FILLER_16_44
*403 FILLER_16_51
*404 FILLER_16_59
*405 FILLER_16_66
*406 FILLER_16_78
*407 FILLER_16_85
*408 FILLER_17_106
*409 FILLER_17_123
*410 FILLER_17_130
*411 FILLER_17_142
*412 FILLER_17_146
*413 FILLER_17_175
*414 FILLER_17_181
*415 FILLER_17_19
*416 FILLER_17_43
*417 FILLER_17_49
*418 FILLER_17_55
*419 FILLER_17_64
*420 FILLER_17_7
*421 FILLER_17_76
*422 FILLER_17_86
*423 FILLER_17_97
*424 FILLER_18_103
*425 FILLER_18_120
*426 FILLER_18_133
*427 FILLER_18_139
*428 FILLER_18_15
*429 FILLER_18_155
*430 FILLER_18_163
*431 FILLER_18_180
*432 FILLER_18_27
*433 FILLER_18_29
*434 FILLER_18_3
*435 FILLER_18_38
*436 FILLER_18_64
*437 FILLER_18_71
*438 FILLER_18_83
*439 FILLER_18_85
*440 FILLER_18_91
*441 FILLER_19_102
*442 FILLER_19_109
*443 FILLER_19_116
*444 FILLER_19_124
*445 FILLER_19_132
*446 FILLER_19_144
*447 FILLER_19_156
*448 FILLER_19_166
*449 FILLER_19_169
*450 FILLER_19_180
*451 FILLER_19_19
*452 FILLER_19_31
*453 FILLER_19_43
*454 FILLER_19_55
*455 FILLER_19_67
*456 FILLER_19_7
*457 FILLER_19_78
*458 FILLER_19_86
*459 FILLER_19_94
*460 FILLER_1_104
*461 FILLER_1_110
*462 FILLER_1_132
*463 FILLER_1_144
*464 FILLER_1_15
*465 FILLER_1_156
*466 FILLER_1_169
*467 FILLER_1_181
*468 FILLER_1_27
*469 FILLER_1_3
*470 FILLER_1_46
*471 FILLER_1_54
*472 FILLER_1_60
*473 FILLER_1_78
*474 FILLER_20_103
*475 FILLER_20_111
*476 FILLER_20_122
*477 FILLER_20_139
*478 FILLER_20_141
*479 FILLER_20_152
*480 FILLER_20_164
*481 FILLER_20_172
*482 FILLER_20_19
*483 FILLER_20_27
*484 FILLER_20_29
*485 FILLER_20_41
*486 FILLER_20_53
*487 FILLER_20_65
*488 FILLER_20_7
*489 FILLER_20_77
*490 FILLER_20_83
*491 FILLER_20_97
*492 FILLER_21_101
*493 FILLER_21_109
*494 FILLER_21_129
*495 FILLER_21_165
*496 FILLER_21_169
*497 FILLER_21_177
*498 FILLER_21_18
*499 FILLER_21_30
*500 FILLER_21_38
*501 FILLER_21_6
*502 FILLER_21_64
*503 FILLER_22_112
*504 FILLER_22_124
*505 FILLER_22_136
*506 FILLER_22_141
*507 FILLER_22_147
*508 FILLER_22_151
*509 FILLER_22_165
*510 FILLER_22_177
*511 FILLER_22_19
*512 FILLER_22_27
*513 FILLER_22_29
*514 FILLER_22_41
*515 FILLER_22_49
*516 FILLER_22_59
*517 FILLER_22_7
*518 FILLER_22_71
*519 FILLER_22_83
*520 FILLER_22_85
*521 FILLER_22_93
*522 FILLER_23_105
*523 FILLER_23_111
*524 FILLER_23_113
*525 FILLER_23_125
*526 FILLER_23_137
*527 FILLER_23_149
*528 FILLER_23_15
*529 FILLER_23_161
*530 FILLER_23_167
*531 FILLER_23_169
*532 FILLER_23_181
*533 FILLER_23_27
*534 FILLER_23_3
*535 FILLER_23_39
*536 FILLER_23_51
*537 FILLER_23_55
*538 FILLER_23_57
*539 FILLER_23_69
*540 FILLER_23_81
*541 FILLER_23_93
*542 FILLER_24_109
*543 FILLER_24_121
*544 FILLER_24_133
*545 FILLER_24_139
*546 FILLER_24_141
*547 FILLER_24_15
*548 FILLER_24_153
*549 FILLER_24_165
*550 FILLER_24_177
*551 FILLER_24_181
*552 FILLER_24_27
*553 FILLER_24_29
*554 FILLER_24_3
*555 FILLER_24_41
*556 FILLER_24_53
*557 FILLER_24_65
*558 FILLER_24_77
*559 FILLER_24_83
*560 FILLER_24_85
*561 FILLER_24_97
*562 FILLER_25_105
*563 FILLER_25_111
*564 FILLER_25_113
*565 FILLER_25_125
*566 FILLER_25_137
*567 FILLER_25_149
*568 FILLER_25_15
*569 FILLER_25_161
*570 FILLER_25_167
*571 FILLER_25_169
*572 FILLER_25_181
*573 FILLER_25_27
*574 FILLER_25_3
*575 FILLER_25_39
*576 FILLER_25_51
*577 FILLER_25_55
*578 FILLER_25_57
*579 FILLER_25_69
*580 FILLER_25_81
*581 FILLER_25_93
*582 FILLER_26_109
*583 FILLER_26_121
*584 FILLER_26_133
*585 FILLER_26_139
*586 FILLER_26_141
*587 FILLER_26_15
*588 FILLER_26_153
*589 FILLER_26_165
*590 FILLER_26_177
*591 FILLER_26_181
*592 FILLER_26_27
*593 FILLER_26_29
*594 FILLER_26_3
*595 FILLER_26_41
*596 FILLER_26_53
*597 FILLER_26_65
*598 FILLER_26_77
*599 FILLER_26_83
*600 FILLER_26_85
*601 FILLER_26_97
*602 FILLER_27_105
*603 FILLER_27_111
*604 FILLER_27_113
*605 FILLER_27_125
*606 FILLER_27_137
*607 FILLER_27_149
*608 FILLER_27_15
*609 FILLER_27_161
*610 FILLER_27_167
*611 FILLER_27_169
*612 FILLER_27_181
*613 FILLER_27_27
*614 FILLER_27_3
*615 FILLER_27_39
*616 FILLER_27_51
*617 FILLER_27_55
*618 FILLER_27_57
*619 FILLER_27_69
*620 FILLER_27_81
*621 FILLER_27_93
*622 FILLER_28_109
*623 FILLER_28_121
*624 FILLER_28_133
*625 FILLER_28_139
*626 FILLER_28_141
*627 FILLER_28_15
*628 FILLER_28_153
*629 FILLER_28_165
*630 FILLER_28_177
*631 FILLER_28_181
*632 FILLER_28_27
*633 FILLER_28_29
*634 FILLER_28_3
*635 FILLER_28_41
*636 FILLER_28_53
*637 FILLER_28_65
*638 FILLER_28_77
*639 FILLER_28_83
*640 FILLER_28_85
*641 FILLER_28_97
*642 FILLER_29_105
*643 FILLER_29_111
*644 FILLER_29_113
*645 FILLER_29_125
*646 FILLER_29_137
*647 FILLER_29_149
*648 FILLER_29_15
*649 FILLER_29_161
*650 FILLER_29_167
*651 FILLER_29_169
*652 FILLER_29_181
*653 FILLER_29_27
*654 FILLER_29_3
*655 FILLER_29_39
*656 FILLER_29_51
*657 FILLER_29_55
*658 FILLER_29_57
*659 FILLER_29_69
*660 FILLER_29_81
*661 FILLER_29_93
*662 FILLER_2_100
*663 FILLER_2_129
*664 FILLER_2_137
*665 FILLER_2_141
*666 FILLER_2_15
*667 FILLER_2_153
*668 FILLER_2_165
*669 FILLER_2_177
*670 FILLER_2_181
*671 FILLER_2_27
*672 FILLER_2_29
*673 FILLER_2_3
*674 FILLER_2_35
*675 FILLER_2_39
*676 FILLER_2_45
*677 FILLER_2_79
*678 FILLER_2_88
*679 FILLER_2_95
*680 FILLER_30_103
*681 FILLER_30_107
*682 FILLER_30_113
*683 FILLER_30_119
*684 FILLER_30_131
*685 FILLER_30_139
*686 FILLER_30_141
*687 FILLER_30_15
*688 FILLER_30_153
*689 FILLER_30_165
*690 FILLER_30_169
*691 FILLER_30_181
*692 FILLER_30_27
*693 FILLER_30_29
*694 FILLER_30_3
*695 FILLER_30_41
*696 FILLER_30_53
*697 FILLER_30_57
*698 FILLER_30_69
*699 FILLER_30_77
*700 FILLER_30_85
*701 FILLER_30_91
*702 FILLER_3_109
*703 FILLER_3_123
*704 FILLER_3_148
*705 FILLER_3_15
*706 FILLER_3_160
*707 FILLER_3_169
*708 FILLER_3_181
*709 FILLER_3_27
*710 FILLER_3_3
*711 FILLER_3_38
*712 FILLER_3_55
*713 FILLER_3_69
*714 FILLER_3_77
*715 FILLER_3_89
*716 FILLER_3_95
*717 FILLER_4_104
*718 FILLER_4_116
*719 FILLER_4_122
*720 FILLER_4_135
*721 FILLER_4_139
*722 FILLER_4_141
*723 FILLER_4_15
*724 FILLER_4_153
*725 FILLER_4_165
*726 FILLER_4_177
*727 FILLER_4_27
*728 FILLER_4_29
*729 FILLER_4_3
*730 FILLER_4_41
*731 FILLER_4_53
*732 FILLER_4_65
*733 FILLER_4_92
*734 FILLER_5_102
*735 FILLER_5_110
*736 FILLER_5_113
*737 FILLER_5_124
*738 FILLER_5_136
*739 FILLER_5_148
*740 FILLER_5_15
*741 FILLER_5_160
*742 FILLER_5_169
*743 FILLER_5_181
*744 FILLER_5_23
*745 FILLER_5_3
*746 FILLER_5_31
*747 FILLER_5_50
*748 FILLER_5_57
*749 FILLER_5_90
*750 FILLER_6_109
*751 FILLER_6_12
*752 FILLER_6_137
*753 FILLER_6_141
*754 FILLER_6_153
*755 FILLER_6_165
*756 FILLER_6_177
*757 FILLER_6_181
*758 FILLER_6_25
*759 FILLER_6_29
*760 FILLER_6_3
*761 FILLER_6_7
*762 FILLER_6_85
*763 FILLER_7_109
*764 FILLER_7_113
*765 FILLER_7_125
*766 FILLER_7_137
*767 FILLER_7_149
*768 FILLER_7_161
*769 FILLER_7_167
*770 FILLER_7_169
*771 FILLER_7_181
*772 FILLER_7_26
*773 FILLER_7_3
*774 FILLER_7_38
*775 FILLER_7_50
*776 FILLER_7_77
*777 FILLER_7_88
*778 FILLER_8_101
*779 FILLER_8_106
*780 FILLER_8_112
*781 FILLER_8_117
*782 FILLER_8_129
*783 FILLER_8_137
*784 FILLER_8_141
*785 FILLER_8_153
*786 FILLER_8_165
*787 FILLER_8_177
*788 FILLER_8_18
*789 FILLER_8_181
*790 FILLER_8_26
*791 FILLER_8_3
*792 FILLER_8_34
*793 FILLER_8_41
*794 FILLER_8_53
*795 FILLER_8_62
*796 FILLER_8_74
*797 FILLER_8_82
*798 FILLER_8_85
*799 FILLER_8_91
*800 FILLER_8_95
*801 FILLER_9_104
*802 FILLER_9_119
*803 FILLER_9_161
*804 FILLER_9_167
*805 FILLER_9_169
*806 FILLER_9_181
*807 FILLER_9_30
*808 FILLER_9_49
*809 FILLER_9_53
*810 FILLER_9_57
*811 FILLER_9_69
*812 FILLER_9_75
*813 FILLER_9_87
*814 FILLER_9_93
*815 FILLER_9_99
*816 PHY_EDGE_ROW_0_Left_31
*817 PHY_EDGE_ROW_0_Right_0
*818 PHY_EDGE_ROW_10_Left_41
*819 PHY_EDGE_ROW_10_Right_10
*820 PHY_EDGE_ROW_11_Left_42
*821 PHY_EDGE_ROW_11_Right_11
*822 PHY_EDGE_ROW_12_Left_43
*823 PHY_EDGE_ROW_12_Right_12
*824 PHY_EDGE_ROW_13_Left_44
*825 PHY_EDGE_ROW_13_Right_13
*826 PHY_EDGE_ROW_14_Left_45
*827 PHY_EDGE_ROW_14_Right_14
*828 PHY_EDGE_ROW_15_Left_46
*829 PHY_EDGE_ROW_15_Right_15
*830 PHY_EDGE_ROW_16_Left_47
*831 PHY_EDGE_ROW_16_Right_16
*832 PHY_EDGE_ROW_17_Left_48
*833 PHY_EDGE_ROW_17_Right_17
*834 PHY_EDGE_ROW_18_Left_49
*835 PHY_EDGE_ROW_18_Right_18
*836 PHY_EDGE_ROW_19_Left_50
*837 PHY_EDGE_ROW_19_Right_19
*838 PHY_EDGE_ROW_1_Left_32
*839 PHY_EDGE_ROW_1_Right_1
*840 PHY_EDGE_ROW_20_Left_51
*841 PHY_EDGE_ROW_20_Right_20
*842 PHY_EDGE_ROW_21_Left_52
*843 PHY_EDGE_ROW_21_Right_21
*844 PHY_EDGE_ROW_22_Left_53
*845 PHY_EDGE_ROW_22_Right_22
*846 PHY_EDGE_ROW_23_Left_54
*847 PHY_EDGE_ROW_23_Right_23
*848 PHY_EDGE_ROW_24_Left_55
*849 PHY_EDGE_ROW_24_Right_24
*850 PHY_EDGE_ROW_25_Left_56
*851 PHY_EDGE_ROW_25_Right_25
*852 PHY_EDGE_ROW_26_Left_57
*853 PHY_EDGE_ROW_26_Right_26
*854 PHY_EDGE_ROW_27_Left_58
*855 PHY_EDGE_ROW_27_Right_27
*856 PHY_EDGE_ROW_28_Left_59
*857 PHY_EDGE_ROW_28_Right_28
*858 PHY_EDGE_ROW_29_Left_60
*859 PHY_EDGE_ROW_29_Right_29
*860 PHY_EDGE_ROW_2_Left_33
*861 PHY_EDGE_ROW_2_Right_2
*862 PHY_EDGE_ROW_30_Left_61
*863 PHY_EDGE_ROW_30_Right_30
*864 PHY_EDGE_ROW_3_Left_34
*865 PHY_EDGE_ROW_3_Right_3
*866 PHY_EDGE_ROW_4_Left_35
*867 PHY_EDGE_ROW_4_Right_4
*868 PHY_EDGE_ROW_5_Left_36
*869 PHY_EDGE_ROW_5_Right_5
*870 PHY_EDGE_ROW_6_Left_37
*871 PHY_EDGE_ROW_6_Right_6
*872 PHY_EDGE_ROW_7_Left_38
*873 PHY_EDGE_ROW_7_Right_7
*874 PHY_EDGE_ROW_8_Left_39
*875 PHY_EDGE_ROW_8_Right_8
*876 PHY_EDGE_ROW_9_Left_40
*877 PHY_EDGE_ROW_9_Right_9
*878 TAP_TAPCELL_ROW_0_62
*879 TAP_TAPCELL_ROW_0_63
*880 TAP_TAPCELL_ROW_0_64
*881 TAP_TAPCELL_ROW_0_65
*882 TAP_TAPCELL_ROW_0_66
*883 TAP_TAPCELL_ROW_0_67
*884 TAP_TAPCELL_ROW_10_95
*885 TAP_TAPCELL_ROW_10_96
*886 TAP_TAPCELL_ROW_10_97
*887 TAP_TAPCELL_ROW_11_100
*888 TAP_TAPCELL_ROW_11_98
*889 TAP_TAPCELL_ROW_11_99
*890 TAP_TAPCELL_ROW_12_101
*891 TAP_TAPCELL_ROW_12_102
*892 TAP_TAPCELL_ROW_12_103
*893 TAP_TAPCELL_ROW_13_104
*894 TAP_TAPCELL_ROW_13_105
*895 TAP_TAPCELL_ROW_13_106
*896 TAP_TAPCELL_ROW_14_107
*897 TAP_TAPCELL_ROW_14_108
*898 TAP_TAPCELL_ROW_14_109
*899 TAP_TAPCELL_ROW_15_110
*900 TAP_TAPCELL_ROW_15_111
*901 TAP_TAPCELL_ROW_15_112
*902 TAP_TAPCELL_ROW_16_113
*903 TAP_TAPCELL_ROW_16_114
*904 TAP_TAPCELL_ROW_16_115
*905 TAP_TAPCELL_ROW_17_116
*906 TAP_TAPCELL_ROW_17_117
*907 TAP_TAPCELL_ROW_17_118
*908 TAP_TAPCELL_ROW_18_119
*909 TAP_TAPCELL_ROW_18_120
*910 TAP_TAPCELL_ROW_18_121
*911 TAP_TAPCELL_ROW_19_122
*912 TAP_TAPCELL_ROW_19_123
*913 TAP_TAPCELL_ROW_19_124
*914 TAP_TAPCELL_ROW_1_68
*915 TAP_TAPCELL_ROW_1_69
*916 TAP_TAPCELL_ROW_1_70
*917 TAP_TAPCELL_ROW_20_125
*918 TAP_TAPCELL_ROW_20_126
*919 TAP_TAPCELL_ROW_20_127
*920 TAP_TAPCELL_ROW_21_128
*921 TAP_TAPCELL_ROW_21_129
*922 TAP_TAPCELL_ROW_21_130
*923 TAP_TAPCELL_ROW_22_131
*924 TAP_TAPCELL_ROW_22_132
*925 TAP_TAPCELL_ROW_22_133
*926 TAP_TAPCELL_ROW_23_134
*927 TAP_TAPCELL_ROW_23_135
*928 TAP_TAPCELL_ROW_23_136
*929 TAP_TAPCELL_ROW_24_137
*930 TAP_TAPCELL_ROW_24_138
*931 TAP_TAPCELL_ROW_24_139
*932 TAP_TAPCELL_ROW_25_140
*933 TAP_TAPCELL_ROW_25_141
*934 TAP_TAPCELL_ROW_25_142
*935 TAP_TAPCELL_ROW_26_143
*936 TAP_TAPCELL_ROW_26_144
*937 TAP_TAPCELL_ROW_26_145
*938 TAP_TAPCELL_ROW_27_146
*939 TAP_TAPCELL_ROW_27_147
*940 TAP_TAPCELL_ROW_27_148
*941 TAP_TAPCELL_ROW_28_149
*942 TAP_TAPCELL_ROW_28_150
*943 TAP_TAPCELL_ROW_28_151
*944 TAP_TAPCELL_ROW_29_152
*945 TAP_TAPCELL_ROW_29_153
*946 TAP_TAPCELL_ROW_29_154
*947 TAP_TAPCELL_ROW_2_71
*948 TAP_TAPCELL_ROW_2_72
*949 TAP_TAPCELL_ROW_2_73
*950 TAP_TAPCELL_ROW_30_155
*951 TAP_TAPCELL_ROW_30_156
*952 TAP_TAPCELL_ROW_30_157
*953 TAP_TAPCELL_ROW_30_158
*954 TAP_TAPCELL_ROW_30_159
*955 TAP_TAPCELL_ROW_30_160
*956 TAP_TAPCELL_ROW_3_74
*957 TAP_TAPCELL_ROW_3_75
*958 TAP_TAPCELL_ROW_3_76
*959 TAP_TAPCELL_ROW_4_77
*960 TAP_TAPCELL_ROW_4_78
*961 TAP_TAPCELL_ROW_4_79
*962 TAP_TAPCELL_ROW_5_80
*963 TAP_TAPCELL_ROW_5_81
*964 TAP_TAPCELL_ROW_5_82
*965 TAP_TAPCELL_ROW_6_83
*966 TAP_TAPCELL_ROW_6_84
*967 TAP_TAPCELL_ROW_6_85
*968 TAP_TAPCELL_ROW_7_86
*969 TAP_TAPCELL_ROW_7_87
*970 TAP_TAPCELL_ROW_7_88
*971 TAP_TAPCELL_ROW_8_89
*972 TAP_TAPCELL_ROW_8_90
*973 TAP_TAPCELL_ROW_8_91
*974 TAP_TAPCELL_ROW_9_92
*975 TAP_TAPCELL_ROW_9_93
*976 TAP_TAPCELL_ROW_9_94
*977 _168_
*978 _169_
*979 _170_
*980 _171_
*981 _172_
*982 _173_
*983 _174_
*984 _175_
*985 _176_
*986 _177_
*987 _178_
*988 _179_
*989 _180_
*990 _181_
*991 _182_
*992 _183_
*993 _184_
*994 _185_
*995 _186_
*996 _187_
*997 _188_
*998 _189_
*999 _190_
*1000 _191_
*1001 _192_
*1002 _193_
*1003 _194_
*1004 _195_
*1005 _196_
*1006 _197_
*1007 _198_
*1008 _199_
*1009 _200_
*1010 _201_
*1011 _202_
*1012 _203_
*1013 _204_
*1014 _205_
*1015 _206_
*1016 _207_
*1017 _208_
*1018 _209_
*1019 _210_
*1020 _211_
*1021 _212_
*1022 _213_
*1023 _214_
*1024 _215_
*1025 _216_
*1026 _217_
*1027 _218_
*1028 _219_
*1029 _220_
*1030 _221_
*1031 _222_
*1032 _223_
*1033 _224_
*1034 _225_
*1035 _226_
*1036 _227_
*1037 _228_
*1038 _229_
*1039 _230_
*1040 _231_
*1041 _232_
*1042 _233_
*1043 _234_
*1044 _235_
*1045 _236_
*1046 _237_
*1047 _238_
*1048 _239_
*1049 _240_
*1050 _241_
*1051 _242_
*1052 _243_
*1053 _244_
*1054 _245_
*1055 _246_
*1056 _247_
*1057 _248_
*1058 _249_
*1059 _250_
*1060 _251_
*1061 _252_
*1062 _253_
*1063 _254_
*1064 _255_
*1065 _256_
*1066 _257_
*1067 _258_
*1068 _259_
*1069 _260_
*1070 _261_
*1071 _262_
*1072 _263_
*1073 _264_
*1074 _265_
*1075 _266_
*1076 _267_
*1077 _268_
*1078 _269_
*1079 _270_
*1080 _271_
*1081 _272_
*1082 _273_
*1083 _274_
*1084 _275_
*1085 _276_
*1086 _277_
*1087 _278_
*1088 _279_
*1089 _280_
*1090 _281_
*1091 _282_
*1092 _283_
*1093 _284_
*1094 _285_
*1095 _286_
*1096 _287_
*1097 _288_
*1098 _289_
*1099 _290_
*1100 _291_
*1101 _292_
*1102 _293_
*1103 _294_
*1104 _295_
*1105 _296_
*1106 _297_
*1107 _298_
*1108 _299_
*1109 _300_
*1110 _301_
*1111 _302_
*1112 _303_
*1113 _304_
*1114 _305_
*1115 _306_
*1116 _307_
*1117 _308_
*1118 _309_
*1119 _310_
*1120 _311_
*1121 _312_
*1122 _313_
*1123 _314_
*1124 _315_
*1125 _316_
*1126 _317_
*1127 _318_
*1128 _319_
*1129 _320_
*1130 _321_
*1131 _322_
*1132 _323_
*1133 _324_
*1134 _325_
*1135 _326_
*1136 _327_
*1137 _328_
*1138 _329_
*1139 _330_
*1140 _331_
*1141 _332_
*1142 _333_
*1143 _334_
*1144 _335_
*1145 _336_
*1146 _337_
*1147 _338_
*1148 _339_
*1149 _340_
*1150 _341_
*1151 _342_
*1152 _343_
*1153 _344_
*1154 _345_
*1155 _346_
*1156 _347_
*1157 _348_
*1158 _349_
*1159 _350_
*1160 _351_
*1161 _352_
*1162 _353_
*1163 _354_
*1164 _355_
*1165 _356_
*1166 _357_
*1167 _358_
*1168 _359_
*1169 _360_
*1170 _361_
*1171 _362_
*1172 _363_
*1173 _364_
*1174 _365_
*1175 _366_
*1176 _367_
*1177 clkbuf_0_clk
*1178 clkbuf_2_0__f_clk
*1179 clkbuf_2_1__f_clk
*1180 clkbuf_2_2__f_clk
*1181 clkbuf_2_3__f_clk
*1182 clkload0
*1183 clkload1
*1184 fanout35
*1185 fanout36
*1186 fanout41
*1187 fanout42
*1188 fanout43
*1189 fanout44
*1190 fanout45
*1191 fanout46
*1192 fanout47
*1193 hold1
*1194 hold10
*1195 hold11
*1196 hold12
*1197 hold13
*1198 hold14
*1199 hold15
*1200 hold16
*1201 hold17
*1202 hold18
*1203 hold19
*1204 hold2
*1205 hold20
*1206 hold3
*1207 hold4
*1208 hold5
*1209 hold6
*1210 hold7
*1211 hold8
*1212 hold9
*1213 input1
*1214 input2
*1215 max_cap38
*1216 max_cap39
*1217 max_cap40
*1218 output10
*1219 output11
*1220 output12
*1221 output13
*1222 output14
*1223 output15
*1224 output16
*1225 output17
*1226 output18
*1227 output19
*1228 output20
*1229 output21
*1230 output22
*1231 output23
*1232 output24
*1233 output25
*1234 output26
*1235 output27
*1236 output28
*1237 output29
*1238 output3
*1239 output30
*1240 output31
*1241 output32
*1242 output33
*1243 output34
*1244 output4
*1245 output5
*1246 output6
*1247 output7
*1248 output8
*1249 output9
*1250 wire37

*PORTS
clk I
count[0] O
count[10] O
count[11] O
count[12] O
count[13] O
count[14] O
count[15] O
count[16] O
count[17] O
count[18] O
count[19] O
count[1] O
count[20] O
count[21] O
count[22] O
count[23] O
count[24] O
count[25] O
count[26] O
count[27] O
count[28] O
count[29] O
count[2] O
count[30] O
count[31] O
count[3] O
count[4] O
count[5] O
count[6] O
count[7] O
count[8] O
count[9] O
en I
rst_n I

*D_NET *3 0.0088938
*CONN
*P clk I
*I *1177:A I *D sky130_fd_sc_hd__clkbuf_16
*CAP
1 clk 0.00438469
2 *1177:A 0
3 *3:21 0.00438469
4 *3:21 *1062:B1 1.2878e-05
5 *3:21 *1178:A 0.000103966
6 *3:21 *1179:A 0
7 *3:21 *189:80 7.57281e-06
*RES
1 clk *3:21 47.741 
2 *3:21 *1177:A 38 
*END

*D_NET *4 0.000746823
*CONN
*P count[0] O
*I *1238:X O *D sky130_fd_sc_hd__buf_2
*CAP
1 count[0] 9.40689e-05
2 *1238:X 0.000279343
3 *4:14 0.000373412
4 count[0] count[17] 0
5 *4:14 *12:14 0
*RES
1 *1238:X *4:14 49.9 
2 *4:14 count[0] 0.382667 
*END

*D_NET *5 0.000864283
*CONN
*P count[10] O
*I *1244:X O *D sky130_fd_sc_hd__buf_2
*CAP
1 count[10] 0.000432142
2 *1244:X 0.000432142
3 count[10] count[11] 0
4 count[10] count[8] 0
*RES
1 *1244:X count[10] 46.6171 
*END

*D_NET *6 0.00100658
*CONN
*P count[11] O
*I *1245:X O *D sky130_fd_sc_hd__buf_2
*CAP
1 count[11] 0.000503292
2 *1245:X 0.000503292
3 count[11] count[13] 0
4 count[10] count[11] 0
*RES
1 *1245:X count[11] 47.57 
*END

*D_NET *7 0.00185409
*CONN
*P count[12] O
*I *1246:X O *D sky130_fd_sc_hd__buf_2
*CAP
1 count[12] 0.000591087
2 *1246:X 7.6311e-05
3 *7:8 0.000667398
4 count[12] count[14] 0
5 count[12] count[15] 0
6 count[12] *236:12 7.81073e-05
7 count[12] *276:22 0.000404047
8 count[12] *277:12 0
9 *7:8 *266:24 3.71369e-05
*RES
1 *1246:X *7:8 39.0979 
2 *7:8 count[12] 13.63 
*END

*D_NET *8 0.00100658
*CONN
*P count[13] O
*I *1247:X O *D sky130_fd_sc_hd__buf_2
*CAP
1 count[13] 0.000503292
2 *1247:X 0.000503292
3 count[13] count[7] 0
4 count[11] count[13] 0
*RES
1 *1247:X count[13] 47.57 
*END

*D_NET *9 0.00146566
*CONN
*P count[14] O
*I *1248:X O *D sky130_fd_sc_hd__buf_2
*CAP
1 count[14] 0.000618379
2 *1248:X 0.000618379
3 count[14] count[6] 0
4 count[14] *276:22 0.000228903
5 count[12] count[14] 0
*RES
1 *1248:X count[14] 49.4757 
*END

*D_NET *10 0.00102549
*CONN
*P count[15] O
*I *1249:X O *D sky130_fd_sc_hd__buf_2
*CAP
1 count[15] 0.000484757
2 *1249:X 0.000484757
3 count[15] count[7] 0
4 count[15] *1241:A 2.65879e-05
5 count[15] *277:12 2.93845e-05
6 count[12] count[15] 0
*RES
1 *1249:X count[15] 47.57 
*END

*D_NET *11 0.000654793
*CONN
*P count[16] O
*I *1218:X O *D sky130_fd_sc_hd__buf_2
*CAP
1 count[16] 0.000306151
2 *1218:X 0.000306151
3 count[16] count[17] 2.12457e-05
4 count[16] count[18] 2.12457e-05
5 count[16] *1213:A 0
6 count[16] *13:14 0
7 count[16] *211:14 0
*RES
1 *1218:X count[16] 48.5734 
*END

*D_NET *12 0.000759134
*CONN
*P count[17] O
*I *1219:X O *D sky130_fd_sc_hd__buf_2
*CAP
1 count[17] 8.37565e-05
2 *1219:X 0.000285187
3 *12:14 0.000368944
4 count[0] count[17] 0
5 count[16] count[17] 2.12457e-05
6 *4:14 *12:14 0
*RES
1 *1219:X *12:14 49.9 
2 *12:14 count[17] 0.382667 
*END

*D_NET *13 0.000751427
*CONN
*P count[18] O
*I *1220:X O *D sky130_fd_sc_hd__buf_2
*CAP
1 count[18] 7.67726e-05
2 *1220:X 0.000272694
3 *13:14 0.000349467
4 count[18] *1213:A 1.5289e-05
5 *13:14 *1213:A 1.59585e-05
6 count[16] count[18] 2.12457e-05
7 count[16] *13:14 0
*RES
1 *1220:X *13:14 49.9 
2 *13:14 count[18] 0.382667 
*END

*D_NET *14 0.000686539
*CONN
*P count[19] O
*I *1221:X O *D sky130_fd_sc_hd__buf_2
*CAP
1 count[19] 8.40108e-05
2 *1221:X 0.000248636
3 *14:14 0.000332646
4 count[19] *1213:A 2.12457e-05
5 *14:14 *1213:A 0
*RES
1 *1221:X *14:14 49.9 
2 *14:14 count[19] 0.382667 
*END

*D_NET *15 0.00100052
*CONN
*P count[1] O
*I *1222:X O *D sky130_fd_sc_hd__buf_2
*CAP
1 count[1] 0.000476081
2 *1222:X 0.000476081
3 count[1] count[2] 1.5289e-05
4 count[1] count[3] 0
5 count[1] *26:14 1.26232e-05
6 count[1] *208:35 2.04508e-05
*RES
1 *1222:X count[1] 48.0321 
*END

*D_NET *16 0.000960449
*CONN
*P count[20] O
*I *1223:X O *D sky130_fd_sc_hd__buf_2
*CAP
1 count[20] 0.000480224
2 *1223:X 0.000480224
3 count[20] count[21] 0
*RES
1 *1223:X count[20] 48.5021 
*END

*D_NET *17 0.000960449
*CONN
*P count[21] O
*I *1224:X O *D sky130_fd_sc_hd__buf_2
*CAP
1 count[21] 0.000480224
2 *1224:X 0.000480224
3 count[20] count[21] 0
*RES
1 *1224:X count[21] 48.5021 
*END

*D_NET *18 0.00117463
*CONN
*P count[22] O
*I *1225:X O *D sky130_fd_sc_hd__buf_2
*CAP
1 count[22] 0.000587313
2 *1225:X 0.000587313
*RES
1 *1225:X count[22] 49.6 
*END

*D_NET *19 0.00100219
*CONN
*P count[23] O
*I *1226:X O *D sky130_fd_sc_hd__buf_2
*CAP
1 count[23] 0.000501094
2 *1226:X 0.000501094
*RES
1 *1226:X count[23] 48.9786 
*END

*D_NET *20 0.000606729
*CONN
*P count[24] O
*I *1227:X O *D sky130_fd_sc_hd__buf_2
*CAP
1 count[24] 0.000202968
2 *1227:X 0.000202968
3 count[24] count[25] 8.82201e-05
4 count[24] count[26] 9.65101e-05
5 count[24] *223:27 1.60633e-05
*RES
1 *1227:X count[24] 47.6028 
*END

*D_NET *21 0.000606979
*CONN
*P count[25] O
*I *1228:X O *D sky130_fd_sc_hd__buf_2
*CAP
1 count[25] 0.00024995
2 *1228:X 0.00024995
3 count[25] *223:12 1.88594e-05
4 count[24] count[25] 8.82201e-05
*RES
1 *1228:X count[25] 47.6028 
*END

*D_NET *22 0.000629333
*CONN
*P count[26] O
*I *1229:X O *D sky130_fd_sc_hd__buf_2
*CAP
1 count[26] 0.000200362
2 *1229:X 0.000200362
3 count[26] count[27] 9.65101e-05
4 count[26] *224:10 3.55887e-05
5 count[24] count[26] 9.65101e-05
*RES
1 *1229:X count[26] 47.955 
*END

*D_NET *23 0.000677653
*CONN
*P count[27] O
*I *1230:X O *D sky130_fd_sc_hd__buf_2
*CAP
1 count[27] 0.000253261
2 *1230:X 0.000253261
3 count[27] *225:8 7.46212e-05
4 count[26] count[27] 9.65101e-05
*RES
1 *1230:X count[27] 47.955 
*END

*D_NET *24 0.000724978
*CONN
*P count[28] O
*I *1231:X O *D sky130_fd_sc_hd__buf_2
*CAP
1 count[28] 0.00026925
2 *1231:X 0.00026925
3 count[28] count[29] 8.75952e-05
4 count[28] count[30] 9.8882e-05
*RES
1 *1231:X count[28] 49.0114 
*END

*D_NET *25 0.000604533
*CONN
*P count[29] O
*I *1232:X O *D sky130_fd_sc_hd__buf_2
*CAP
1 count[29] 0.000258469
2 *1232:X 0.000258469
3 count[28] count[29] 8.75952e-05
*RES
1 *1232:X count[29] 47.6028 
*END

*D_NET *26 0.00083153
*CONN
*P count[2] O
*I *1233:X O *D sky130_fd_sc_hd__buf_2
*CAP
1 count[2] 7.67726e-05
2 *1233:X 0.000287762
3 *26:14 0.000364534
4 count[2] count[3] 2.12457e-05
5 *26:14 count[3] 0
6 *26:14 *233:37 5.3304e-05
7 count[1] count[2] 1.5289e-05
8 count[1] *26:14 1.26232e-05
*RES
1 *1233:X *26:14 49.9 
2 *26:14 count[2] 0.382667 
*END

*D_NET *27 0.000642086
*CONN
*P count[30] O
*I *1234:X O *D sky130_fd_sc_hd__buf_2
*CAP
1 count[30] 0.00020418
2 *1234:X 0.00020418
3 count[30] count[31] 9.8882e-05
4 count[30] *1234:A 3.59619e-05
5 count[28] count[30] 9.8882e-05
*RES
1 *1234:X count[30] 47.955 
*END

*D_NET *28 0.00133076
*CONN
*P count[31] O
*I *1235:X O *D sky130_fd_sc_hd__buf_2
*CAP
1 count[31] 0.00031879
2 *1235:X 0.000122533
3 *28:8 0.000441323
4 *28:8 *1234:A 8.15327e-05
5 *28:8 *1235:A 0.00017652
6 *28:8 *229:18 2.43996e-05
7 *28:8 *229:47 6.67764e-05
8 count[30] count[31] 9.8882e-05
*RES
1 *1235:X *28:8 42.5468 
2 *28:8 count[31] 9.27307 
*END

*D_NET *29 0.00106886
*CONN
*P count[3] O
*I *1236:X O *D sky130_fd_sc_hd__buf_2
*CAP
1 count[3] 0.000475333
2 *1236:X 0.000475333
3 count[3] *1233:A 3.59847e-05
4 count[3] *1236:A 6.09632e-05
5 count[1] count[3] 0
6 count[2] count[3] 2.12457e-05
7 *26:14 count[3] 0
*RES
1 *1236:X count[3] 49.0027 
*END

*D_NET *30 0.000887024
*CONN
*P count[4] O
*I *1237:X O *D sky130_fd_sc_hd__buf_2
*CAP
1 count[4] 0.000443512
2 *1237:X 0.000443512
3 count[4] count[5] 0
*RES
1 *1237:X count[4] 46.6171 
*END

*D_NET *31 0.00114159
*CONN
*P count[5] O
*I *1239:X O *D sky130_fd_sc_hd__buf_2
*CAP
1 count[5] 0.000518979
2 *1239:X 0.000518979
3 count[5] count[6] 0
4 count[5] *234:27 0.000103637
5 count[4] count[5] 0
*RES
1 *1239:X count[5] 48.0464 
*END

*D_NET *32 0.00109527
*CONN
*P count[6] O
*I *1240:X O *D sky130_fd_sc_hd__buf_2
*CAP
1 count[6] 0.00053149
2 *1240:X 0.00053149
3 count[6] *234:27 3.22879e-05
4 count[14] count[6] 0
5 count[5] count[6] 0
*RES
1 *1240:X count[6] 48.1914 
*END

*D_NET *33 0.00100831
*CONN
*P count[7] O
*I *1241:X O *D sky130_fd_sc_hd__buf_2
*CAP
1 count[7] 0.000497183
2 *1241:X 0.000497183
3 count[7] *1241:A 1.39431e-05
4 count[13] count[7] 0
5 count[15] count[7] 0
*RES
1 *1241:X count[7] 47.57 
*END

*D_NET *34 0.00136418
*CONN
*P count[8] O
*I *1242:X O *D sky130_fd_sc_hd__buf_2
*CAP
1 count[8] 0.000439704
2 *1242:X 0.000133129
3 *34:8 0.000572833
4 count[8] count[9] 0
5 count[8] *1242:A 2.22183e-05
6 *34:8 *1242:A 9.61128e-05
7 *34:8 *259:8 0.00010018
8 count[10] count[8] 0
*RES
1 *1242:X *34:8 41.0036 
2 *34:8 count[8] 9.40429 
*END

*D_NET *35 0.00101996
*CONN
*P count[9] O
*I *1243:X O *D sky130_fd_sc_hd__buf_2
*CAP